


                               __________________________________________
                              |                                          |
                              |  NUMERICAL ELECTROMAGNETICS CODE (nec2c) |
                              |   Translated to 'C' in Double Precision  |
                              |__________________________________________|



                               ---------------- COMMENTS ----------------
                               Default antenna name
                              



                               -------- STRUCTURE SPECIFICATION --------
                                     COORDINATES MUST BE INPUT IN
                                     METERS OR BE SCALED TO METERS
                                     BEFORE STRUCTURE INPUT IS ENDED

  WIRE                                                                                 SEG FIRST  LAST  TAG
   No:        X1         Y1         Z1         X2         Y2         Z2       RADIUS   No:   SEG   SEG  No:
     1      0.0991    -0.2774     0.0000     0.0991     0.2774     0.0000     0.0250    35     1    35    1
     2      0.0991    -0.2774     0.0000    -0.5014    -0.2774     0.0000     0.0250    35    36    70    2
     3      0.0991     0.2774     0.0000    -0.5014     0.2774     0.0000     0.0250    35    71   105    3
     4      3.8241    -0.2774     0.0000     3.8241     0.2774     0.0000     0.0250    35   106   140    4
     5      3.8241    -0.2774     0.0000     3.2235    -0.2774     0.0000     0.0250    35   141   175    5
     6      3.8241     0.2774     0.0000     3.2235     0.2774     0.0000     0.0250    35   176   210    6
     7      3.8241    -0.2774     0.0000     3.8241     0.2774     0.0000     0.0250    35   211   245    7
     8      3.8241    -0.2774     0.0000     3.2235    -0.2774     0.0000     0.0250    35   246   280    8
     9      3.8241     0.2774     0.0000     3.2235     0.2774     0.0000     0.0250    35   281   315    9
    10      3.8241    -0.2774     0.0000     3.8241     0.2774     0.0000     0.0250    35   316   350   10
    11      3.8241    -0.2774     0.0000     3.2235    -0.2774     0.0000     0.0250    35   351   385   11
    12      3.8241     0.2774     0.0000     3.2235     0.2774     0.0000     0.0250    35   386   420   12
    13      3.8241    -0.2774     0.0000     3.8241     0.2774     0.0000     0.0250    35   421   455   13
    14      3.8241    -0.2774     0.0000     3.2235    -0.2774     0.0000     0.0250    35   456   490   14
    15      3.8241     0.2774     0.0000     3.2235     0.2774     0.0000     0.0250    35   491   525   15

     TOTAL SEGMENTS USED: 525   SEGMENTS IN A SYMMETRIC CELL: 525   SYMMETRY FLAG: 0

    ---------- MULTIPLE WIRE JUNCTIONS ----------
    JUNCTION  SEGMENTS (- FOR END 1, + FOR END 2)
       1       -106 -141 -211 -246 -316 -351 -421 -456
       2        106 -107  211 -212  316 -317  421 -422
       3        107 -108  212 -213  317 -318  422 -423
       4        108 -109  213 -214  318 -319  423 -424
       5        109 -110  214 -215  319 -320  424 -425
       6        110 -111  215 -216  320 -321  425 -426
       7        111 -112  216 -217  321 -322  426 -427
       8        112 -113  217 -218  322 -323  427 -428
       9        113 -114  218 -219  323 -324  428 -429
      10        114 -115  219 -220  324 -325  429 -430
      11        115 -116  220 -221  325 -326  430 -431
      12        116 -117  221 -222  326 -327  431 -432
      13        117 -118  222 -223  327 -328  432 -433
      14        118 -119  223 -224  328 -329  433 -434
      15        119 -120  224 -225  329 -330  434 -435
      16        120 -121  225 -226  330 -331  435 -436
      17        121 -122  226 -227  331 -332  436 -437
      18        122 -123  227 -228  332 -333  437 -438
      19        123 -124  228 -229  333 -334  438 -439
      20        124 -125  229 -230  334 -335  439 -440
      21        125 -126  230 -231  335 -336  440 -441
      22        126 -127  231 -232  336 -337  441 -442
      23        127 -128  232 -233  337 -338  442 -443
      24        128 -129  233 -234  338 -339  443 -444
      25        129 -130  234 -235  339 -340  444 -445
      26        130 -131  235 -236  340 -341  445 -446
      27        131 -132  236 -237  341 -342  446 -447
      28        132 -133  237 -238  342 -343  447 -448
      29        133 -134  238 -239  343 -344  448 -449
      30        134 -135  239 -240  344 -345  449 -450
      31        135 -136  240 -241  345 -346  450 -451
      32        136 -137  241 -242  346 -347  451 -452
      33        137 -138  242 -243  347 -348  452 -453
      34        138 -139  243 -244  348 -349  453 -454
      35        139 -140  244 -245  349 -350  454 -455
      36        140 -176  245 -281  350 -386  455 -491
      37        141 -142  246 -247  351 -352  456 -457
      38        142 -143  247 -248  352 -353  457 -458
      39        143 -144  248 -249  353 -354  458 -459
      40        144 -145  249 -250  354 -355  459 -460
      41        145 -146  250 -251  355 -356  460 -461
      42        146 -147  251 -252  356 -357  461 -462
      43        147 -148  252 -253  357 -358  462 -463
      44        148 -149  253 -254  358 -359  463 -464
      45        149 -150  254 -255  359 -360  464 -465
      46        150 -151  255 -256  360 -361  465 -466
      47        151 -152  256 -257  361 -362  466 -467
      48        152 -153  257 -258  362 -363  467 -468
      49        153 -154  258 -259  363 -364  468 -469
      50        154 -155  259 -260  364 -365  469 -470
      51        155 -156  260 -261  365 -366  470 -471
      52        156 -157  261 -262  366 -367  471 -472
      53        157 -158  262 -263  367 -368  472 -473
      54        158 -159  263 -264  368 -369  473 -474
      55        159 -160  264 -265  369 -370  474 -475
      56        160 -161  265 -266  370 -371  475 -476
      57        161 -162  266 -267  371 -372  476 -477
      58        162 -163  267 -268  372 -373  477 -478
      59        163 -164  268 -269  373 -374  478 -479
      60        164 -165  269 -270  374 -375  479 -480
      61        165 -166  270 -271  375 -376  480 -481
      62        166 -167  271 -272  376 -377  481 -482
      63        167 -168  272 -273  377 -378  482 -483
      64        168 -169  273 -274  378 -379  483 -484
      65        169 -170  274 -275  379 -380  484 -485
      66        170 -171  275 -276  380 -381  485 -486
      67        171 -172  276 -277  381 -382  486 -487
      68        172 -173  277 -278  382 -383  487 -488
      69        173 -174  278 -279  383 -384  488 -489
      70        174 -175  279 -280  384 -385  489 -490
      71        175  280  385  490
      72        176 -177  281 -282  386 -387  491 -492
      73        177 -178  282 -283  387 -388  492 -493
      74        178 -179  283 -284  388 -389  493 -494
      75        179 -180  284 -285  389 -390  494 -495
      76        180 -181  285 -286  390 -391  495 -496
      77        181 -182  286 -287  391 -392  496 -497
      78        182 -183  287 -288  392 -393  497 -498
      79        183 -184  288 -289  393 -394  498 -499
      80        184 -185  289 -290  394 -395  499 -500
      81        185 -186  290 -291  395 -396  500 -501
      82        186 -187  291 -292  396 -397  501 -502
      83        187 -188  292 -293  397 -398  502 -503
      84        188 -189  293 -294  398 -399  503 -504
      85        189 -190  294 -295  399 -400  504 -505
      86        190 -191  295 -296  400 -401  505 -506
      87        191 -192  296 -297  401 -402  506 -507
      88        192 -193  297 -298  402 -403  507 -508
      89        193 -194  298 -299  403 -404  508 -509
      90        194 -195  299 -300  404 -405  509 -510
      91        195 -196  300 -301  405 -406  510 -511
      92        196 -197  301 -302  406 -407  511 -512
      93        197 -198  302 -303  407 -408  512 -513
      94        198 -199  303 -304  408 -409  513 -514
      95        199 -200  304 -305  409 -410  514 -515
      96        200 -201  305 -306  410 -411  515 -516
      97        201 -202  306 -307  411 -412  516 -517
      98        202 -203  307 -308  412 -413  517 -518
      99        203 -204  308 -309  413 -414  518 -519
     100        204 -205  309 -310  414 -415  519 -520
     101        205 -206  310 -311  415 -416  520 -521
     102        206 -207  311 -312  416 -417  521 -522
     103        207 -208  312 -313  417 -418  522 -523
     104        208 -209  313 -314  418 -419  523 -524
     105        209 -210  314 -315  419 -420  524 -525
     106        210  315  420  525


                               ---------- SEGMENTATION DATA ----------
                                        COORDINATES IN METERS
                            I+ AND I- INDICATE THE SEGMENTS BEFORE AND AFTER I

   SEG    COORDINATES OF SEGM CENTER     SEGM    ORIENTATION ANGLES    WIRE    CONNECTION DATA   TAG
   No:       X         Y         Z      LENGTH     ALPHA      BETA    RADIUS    I-     I    I+   No:
     1    0.0991   -0.2695    0.0000    0.0159    0.0000   90.0000    0.0250   -36     1     2     1
     2    0.0991   -0.2537    0.0000    0.0159    0.0000   90.0000    0.0250     1     2     3     1
     3    0.0991   -0.2378    0.0000    0.0159    0.0000   90.0000    0.0250     2     3     4     1
     4    0.0991   -0.2220    0.0000    0.0159    0.0000   90.0000    0.0250     3     4     5     1
     5    0.0991   -0.2061    0.0000    0.0159    0.0000   90.0000    0.0250     4     5     6     1
     6    0.0991   -0.1902    0.0000    0.0159    0.0000   90.0000    0.0250     5     6     7     1
     7    0.0991   -0.1744    0.0000    0.0159    0.0000   90.0000    0.0250     6     7     8     1
     8    0.0991   -0.1585    0.0000    0.0159    0.0000   90.0000    0.0250     7     8     9     1
     9    0.0991   -0.1427    0.0000    0.0159    0.0000   90.0000    0.0250     8     9    10     1
    10    0.0991   -0.1268    0.0000    0.0159    0.0000   90.0000    0.0250     9    10    11     1
    11    0.0991   -0.1110    0.0000    0.0159    0.0000   90.0000    0.0250    10    11    12     1
    12    0.0991   -0.0951    0.0000    0.0159    0.0000   90.0000    0.0250    11    12    13     1
    13    0.0991   -0.0793    0.0000    0.0159    0.0000   90.0000    0.0250    12    13    14     1
    14    0.0991   -0.0634    0.0000    0.0159    0.0000   90.0000    0.0250    13    14    15     1
    15    0.0991   -0.0476    0.0000    0.0159    0.0000   90.0000    0.0250    14    15    16     1
    16    0.0991   -0.0317    0.0000    0.0159    0.0000   90.0000    0.0250    15    16    17     1
    17    0.0991   -0.0159    0.0000    0.0159    0.0000   90.0000    0.0250    16    17    18     1
    18    0.0991    0.0000    0.0000    0.0159    0.0000   90.0000    0.0250    17    18    19     1
    19    0.0991    0.0159    0.0000    0.0159    0.0000   90.0000    0.0250    18    19    20     1
    20    0.0991    0.0317    0.0000    0.0159    0.0000   90.0000    0.0250    19    20    21     1
    21    0.0991    0.0476    0.0000    0.0159    0.0000   90.0000    0.0250    20    21    22     1
    22    0.0991    0.0634    0.0000    0.0159    0.0000   90.0000    0.0250    21    22    23     1
    23    0.0991    0.0793    0.0000    0.0159    0.0000   90.0000    0.0250    22    23    24     1
    24    0.0991    0.0951    0.0000    0.0159    0.0000   90.0000    0.0250    23    24    25     1
    25    0.0991    0.1110    0.0000    0.0159    0.0000   90.0000    0.0250    24    25    26     1
    26    0.0991    0.1268    0.0000    0.0159    0.0000   90.0000    0.0250    25    26    27     1
    27    0.0991    0.1427    0.0000    0.0159    0.0000   90.0000    0.0250    26    27    28     1
    28    0.0991    0.1585    0.0000    0.0159    0.0000   90.0000    0.0250    27    28    29     1
    29    0.0991    0.1744    0.0000    0.0159    0.0000   90.0000    0.0250    28    29    30     1
    30    0.0991    0.1902    0.0000    0.0159    0.0000   90.0000    0.0250    29    30    31     1
    31    0.0991    0.2061    0.0000    0.0159    0.0000   90.0000    0.0250    30    31    32     1
    32    0.0991    0.2220    0.0000    0.0159    0.0000   90.0000    0.0250    31    32    33     1
    33    0.0991    0.2378    0.0000    0.0159    0.0000   90.0000    0.0250    32    33    34     1
    34    0.0991    0.2537    0.0000    0.0159    0.0000   90.0000    0.0250    33    34    35     1
    35    0.0991    0.2695    0.0000    0.0159    0.0000   90.0000    0.0250    34    35    71     1
    36    0.0906   -0.2774    0.0000    0.0172    0.0000  180.0000    0.0250    -1    36    37     2
    37    0.0734   -0.2774    0.0000    0.0172    0.0000  180.0000    0.0250    36    37    38     2
    38    0.0562   -0.2774    0.0000    0.0172    0.0000  180.0000    0.0250    37    38    39     2
    39    0.0391   -0.2774    0.0000    0.0172    0.0000  180.0000    0.0250    38    39    40     2
    40    0.0219   -0.2774    0.0000    0.0172    0.0000  180.0000    0.0250    39    40    41     2
    41    0.0048   -0.2774    0.0000    0.0172    0.0000  180.0000    0.0250    40    41    42     2
    42   -0.0124   -0.2774    0.0000    0.0172    0.0000  180.0000    0.0250    41    42    43     2
    43   -0.0296   -0.2774    0.0000    0.0172    0.0000  180.0000    0.0250    42    43    44     2
    44   -0.0467   -0.2774    0.0000    0.0172    0.0000  180.0000    0.0250    43    44    45     2
    45   -0.0639   -0.2774    0.0000    0.0172    0.0000  180.0000    0.0250    44    45    46     2
    46   -0.0810   -0.2774    0.0000    0.0172    0.0000  180.0000    0.0250    45    46    47     2
    47   -0.0982   -0.2774    0.0000    0.0172    0.0000  180.0000    0.0250    46    47    48     2
    48   -0.1154   -0.2774    0.0000    0.0172    0.0000  180.0000    0.0250    47    48    49     2
    49   -0.1325   -0.2774    0.0000    0.0172    0.0000  180.0000    0.0250    48    49    50     2
    50   -0.1497   -0.2774    0.0000    0.0172    0.0000  180.0000    0.0250    49    50    51     2
    51   -0.1668   -0.2774    0.0000    0.0172    0.0000  180.0000    0.0250    50    51    52     2
    52   -0.1840   -0.2774    0.0000    0.0172    0.0000  180.0000    0.0250    51    52    53     2
    53   -0.2012   -0.2774    0.0000    0.0172    0.0000  180.0000    0.0250    52    53    54     2
    54   -0.2183   -0.2774    0.0000    0.0172    0.0000  180.0000    0.0250    53    54    55     2
    55   -0.2355   -0.2774    0.0000    0.0172    0.0000  180.0000    0.0250    54    55    56     2
    56   -0.2526   -0.2774    0.0000    0.0172    0.0000  180.0000    0.0250    55    56    57     2
    57   -0.2698   -0.2774    0.0000    0.0172    0.0000  180.0000    0.0250    56    57    58     2
    58   -0.2870   -0.2774    0.0000    0.0172    0.0000  180.0000    0.0250    57    58    59     2
    59   -0.3041   -0.2774    0.0000    0.0172    0.0000  180.0000    0.0250    58    59    60     2
    60   -0.3213   -0.2774    0.0000    0.0172    0.0000  180.0000    0.0250    59    60    61     2
    61   -0.3384   -0.2774    0.0000    0.0172    0.0000  180.0000    0.0250    60    61    62     2
    62   -0.3556   -0.2774    0.0000    0.0172    0.0000  180.0000    0.0250    61    62    63     2
    63   -0.3727   -0.2774    0.0000    0.0172    0.0000  180.0000    0.0250    62    63    64     2
    64   -0.3899   -0.2774    0.0000    0.0172    0.0000  180.0000    0.0250    63    64    65     2
    65   -0.4071   -0.2774    0.0000    0.0172    0.0000  180.0000    0.0250    64    65    66     2
    66   -0.4242   -0.2774    0.0000    0.0172    0.0000  180.0000    0.0250    65    66    67     2
    67   -0.4414   -0.2774    0.0000    0.0172    0.0000  180.0000    0.0250    66    67    68     2
    68   -0.4585   -0.2774    0.0000    0.0172    0.0000  180.0000    0.0250    67    68    69     2
    69   -0.4757   -0.2774    0.0000    0.0172    0.0000  180.0000    0.0250    68    69    70     2
    70   -0.4929   -0.2774    0.0000    0.0172    0.0000  180.0000    0.0250    69    70     0     2
    71    0.0906    0.2774    0.0000    0.0172    0.0000  180.0000    0.0250    35    71    72     3
    72    0.0734    0.2774    0.0000    0.0172    0.0000  180.0000    0.0250    71    72    73     3
    73    0.0562    0.2774    0.0000    0.0172    0.0000  180.0000    0.0250    72    73    74     3
    74    0.0391    0.2774    0.0000    0.0172    0.0000  180.0000    0.0250    73    74    75     3
    75    0.0219    0.2774    0.0000    0.0172    0.0000  180.0000    0.0250    74    75    76     3
    76    0.0048    0.2774    0.0000    0.0172    0.0000  180.0000    0.0250    75    76    77     3
    77   -0.0124    0.2774    0.0000    0.0172    0.0000  180.0000    0.0250    76    77    78     3
    78   -0.0296    0.2774    0.0000    0.0172    0.0000  180.0000    0.0250    77    78    79     3
    79   -0.0467    0.2774    0.0000    0.0172    0.0000  180.0000    0.0250    78    79    80     3
    80   -0.0639    0.2774    0.0000    0.0172    0.0000  180.0000    0.0250    79    80    81     3
    81   -0.0810    0.2774    0.0000    0.0172    0.0000  180.0000    0.0250    80    81    82     3
    82   -0.0982    0.2774    0.0000    0.0172    0.0000  180.0000    0.0250    81    82    83     3
    83   -0.1154    0.2774    0.0000    0.0172    0.0000  180.0000    0.0250    82    83    84     3
    84   -0.1325    0.2774    0.0000    0.0172    0.0000  180.0000    0.0250    83    84    85     3
    85   -0.1497    0.2774    0.0000    0.0172    0.0000  180.0000    0.0250    84    85    86     3
    86   -0.1668    0.2774    0.0000    0.0172    0.0000  180.0000    0.0250    85    86    87     3
    87   -0.1840    0.2774    0.0000    0.0172    0.0000  180.0000    0.0250    86    87    88     3
    88   -0.2012    0.2774    0.0000    0.0172    0.0000  180.0000    0.0250    87    88    89     3
    89   -0.2183    0.2774    0.0000    0.0172    0.0000  180.0000    0.0250    88    89    90     3
    90   -0.2355    0.2774    0.0000    0.0172    0.0000  180.0000    0.0250    89    90    91     3
    91   -0.2526    0.2774    0.0000    0.0172    0.0000  180.0000    0.0250    90    91    92     3
    92   -0.2698    0.2774    0.0000    0.0172    0.0000  180.0000    0.0250    91    92    93     3
    93   -0.2870    0.2774    0.0000    0.0172    0.0000  180.0000    0.0250    92    93    94     3
    94   -0.3041    0.2774    0.0000    0.0172    0.0000  180.0000    0.0250    93    94    95     3
    95   -0.3213    0.2774    0.0000    0.0172    0.0000  180.0000    0.0250    94    95    96     3
    96   -0.3384    0.2774    0.0000    0.0172    0.0000  180.0000    0.0250    95    96    97     3
    97   -0.3556    0.2774    0.0000    0.0172    0.0000  180.0000    0.0250    96    97    98     3
    98   -0.3727    0.2774    0.0000    0.0172    0.0000  180.0000    0.0250    97    98    99     3
    99   -0.3899    0.2774    0.0000    0.0172    0.0000  180.0000    0.0250    98    99   100     3
   100   -0.4071    0.2774    0.0000    0.0172    0.0000  180.0000    0.0250    99   100   101     3
   101   -0.4242    0.2774    0.0000    0.0172    0.0000  180.0000    0.0250   100   101   102     3
   102   -0.4414    0.2774    0.0000    0.0172    0.0000  180.0000    0.0250   101   102   103     3
   103   -0.4585    0.2774    0.0000    0.0172    0.0000  180.0000    0.0250   102   103   104     3
   104   -0.4757    0.2774    0.0000    0.0172    0.0000  180.0000    0.0250   103   104   105     3
   105   -0.4929    0.2774    0.0000    0.0172    0.0000  180.0000    0.0250   104   105     0     3
   106    3.8241   -0.2695    0.0000    0.0159    0.0000   90.0000    0.0250  -141   106   107     4
   107    3.8241   -0.2537    0.0000    0.0159    0.0000   90.0000    0.0250   211   107   108     4
   108    3.8241   -0.2378    0.0000    0.0159    0.0000   90.0000    0.0250   212   108   109     4
   109    3.8241   -0.2220    0.0000    0.0159    0.0000   90.0000    0.0250   213   109   110     4
   110    3.8241   -0.2061    0.0000    0.0159    0.0000   90.0000    0.0250   214   110   111     4
   111    3.8241   -0.1902    0.0000    0.0159    0.0000   90.0000    0.0250   215   111   112     4
   112    3.8241   -0.1744    0.0000    0.0159    0.0000   90.0000    0.0250   216   112   113     4
   113    3.8241   -0.1585    0.0000    0.0159    0.0000   90.0000    0.0250   217   113   114     4
   114    3.8241   -0.1427    0.0000    0.0159    0.0000   90.0000    0.0250   218   114   115     4
   115    3.8241   -0.1268    0.0000    0.0159    0.0000   90.0000    0.0250   219   115   116     4
   116    3.8241   -0.1110    0.0000    0.0159    0.0000   90.0000    0.0250   220   116   117     4
   117    3.8241   -0.0951    0.0000    0.0159    0.0000   90.0000    0.0250   221   117   118     4
   118    3.8241   -0.0793    0.0000    0.0159    0.0000   90.0000    0.0250   222   118   119     4
   119    3.8241   -0.0634    0.0000    0.0159    0.0000   90.0000    0.0250   223   119   120     4
   120    3.8241   -0.0476    0.0000    0.0159    0.0000   90.0000    0.0250   224   120   121     4
   121    3.8241   -0.0317    0.0000    0.0159    0.0000   90.0000    0.0250   225   121   122     4
   122    3.8241   -0.0159    0.0000    0.0159    0.0000   90.0000    0.0250   226   122   123     4
   123    3.8241    0.0000    0.0000    0.0159    0.0000   90.0000    0.0250   227   123   124     4
   124    3.8241    0.0159    0.0000    0.0159    0.0000   90.0000    0.0250   228   124   125     4
   125    3.8241    0.0317    0.0000    0.0159    0.0000   90.0000    0.0250   229   125   126     4
   126    3.8241    0.0476    0.0000    0.0159    0.0000   90.0000    0.0250   230   126   127     4
   127    3.8241    0.0634    0.0000    0.0159    0.0000   90.0000    0.0250   231   127   128     4
   128    3.8241    0.0793    0.0000    0.0159    0.0000   90.0000    0.0250   232   128   129     4
   129    3.8241    0.0951    0.0000    0.0159    0.0000   90.0000    0.0250   233   129   130     4
   130    3.8241    0.1110    0.0000    0.0159    0.0000   90.0000    0.0250   234   130   131     4
   131    3.8241    0.1268    0.0000    0.0159    0.0000   90.0000    0.0250   235   131   132     4
   132    3.8241    0.1427    0.0000    0.0159    0.0000   90.0000    0.0250   236   132   133     4
   133    3.8241    0.1585    0.0000    0.0159    0.0000   90.0000    0.0250   237   133   134     4
   134    3.8241    0.1744    0.0000    0.0159    0.0000   90.0000    0.0250   238   134   135     4
   135    3.8241    0.1902    0.0000    0.0159    0.0000   90.0000    0.0250   239   135   136     4
   136    3.8241    0.2061    0.0000    0.0159    0.0000   90.0000    0.0250   240   136   137     4
   137    3.8241    0.2220    0.0000    0.0159    0.0000   90.0000    0.0250   241   137   138     4
   138    3.8241    0.2378    0.0000    0.0159    0.0000   90.0000    0.0250   242   138   139     4
   139    3.8241    0.2537    0.0000    0.0159    0.0000   90.0000    0.0250   243   139   140     4
   140    3.8241    0.2695    0.0000    0.0159    0.0000   90.0000    0.0250   244   140   176     4
   141    3.8155   -0.2774    0.0000    0.0172    0.0000  180.0000    0.0250  -211   141   142     5
   142    3.7983   -0.2774    0.0000    0.0172    0.0000  180.0000    0.0250   246   142   143     5
   143    3.7812   -0.2774    0.0000    0.0172    0.0000  180.0000    0.0250   247   143   144     5
   144    3.7640   -0.2774    0.0000    0.0172    0.0000  180.0000    0.0250   248   144   145     5
   145    3.7469   -0.2774    0.0000    0.0172    0.0000  180.0000    0.0250   249   145   146     5
   146    3.7297   -0.2774    0.0000    0.0172    0.0000  180.0000    0.0250   250   146   147     5
   147    3.7125   -0.2774    0.0000    0.0172    0.0000  180.0000    0.0250   251   147   148     5
   148    3.6954   -0.2774    0.0000    0.0172    0.0000  180.0000    0.0250   252   148   149     5
   149    3.6782   -0.2774    0.0000    0.0172    0.0000  180.0000    0.0250   253   149   150     5
   150    3.6611   -0.2774    0.0000    0.0172    0.0000  180.0000    0.0250   254   150   151     5
   151    3.6439   -0.2774    0.0000    0.0172    0.0000  180.0000    0.0250   255   151   152     5
   152    3.6267   -0.2774    0.0000    0.0172    0.0000  180.0000    0.0250   256   152   153     5
   153    3.6096   -0.2774    0.0000    0.0172    0.0000  180.0000    0.0250   257   153   154     5
   154    3.5924   -0.2774    0.0000    0.0172    0.0000  180.0000    0.0250   258   154   155     5
   155    3.5753   -0.2774    0.0000    0.0172    0.0000  180.0000    0.0250   259   155   156     5
   156    3.5581   -0.2774    0.0000    0.0172    0.0000  180.0000    0.0250   260   156   157     5
   157    3.5409   -0.2774    0.0000    0.0172    0.0000  180.0000    0.0250   261   157   158     5
   158    3.5238   -0.2774    0.0000    0.0172    0.0000  180.0000    0.0250   262   158   159     5
   159    3.5066   -0.2774    0.0000    0.0172    0.0000  180.0000    0.0250   263   159   160     5
   160    3.4895   -0.2774    0.0000    0.0172    0.0000  180.0000    0.0250   264   160   161     5
   161    3.4723   -0.2774    0.0000    0.0172    0.0000  180.0000    0.0250   265   161   162     5
   162    3.4552   -0.2774    0.0000    0.0172    0.0000  180.0000    0.0250   266   162   163     5
   163    3.4380   -0.2774    0.0000    0.0172    0.0000  180.0000    0.0250   267   163   164     5
   164    3.4208   -0.2774    0.0000    0.0172    0.0000  180.0000    0.0250   268   164   165     5
   165    3.4037   -0.2774    0.0000    0.0172    0.0000  180.0000    0.0250   269   165   166     5
   166    3.3865   -0.2774    0.0000    0.0172    0.0000  180.0000    0.0250   270   166   167     5
   167    3.3694   -0.2774    0.0000    0.0172    0.0000  180.0000    0.0250   271   167   168     5
   168    3.3522   -0.2774    0.0000    0.0172    0.0000  180.0000    0.0250   272   168   169     5
   169    3.3350   -0.2774    0.0000    0.0172    0.0000  180.0000    0.0250   273   169   170     5
   170    3.3179   -0.2774    0.0000    0.0172    0.0000  180.0000    0.0250   274   170   171     5
   171    3.3007   -0.2774    0.0000    0.0172    0.0000  180.0000    0.0250   275   171   172     5
   172    3.2836   -0.2774    0.0000    0.0172    0.0000  180.0000    0.0250   276   172   173     5
   173    3.2664   -0.2774    0.0000    0.0172    0.0000  180.0000    0.0250   277   173   174     5
   174    3.2492   -0.2774    0.0000    0.0172    0.0000  180.0000    0.0250   278   174   175     5
   175    3.2321   -0.2774    0.0000    0.0172    0.0000  180.0000    0.0250   279   175  -280     5
   176    3.8155    0.2774    0.0000    0.0172    0.0000  180.0000    0.0250   245   176   177     6
   177    3.7983    0.2774    0.0000    0.0172    0.0000  180.0000    0.0250   281   177   178     6
   178    3.7812    0.2774    0.0000    0.0172    0.0000  180.0000    0.0250   282   178   179     6
   179    3.7640    0.2774    0.0000    0.0172    0.0000  180.0000    0.0250   283   179   180     6
   180    3.7469    0.2774    0.0000    0.0172    0.0000  180.0000    0.0250   284   180   181     6
   181    3.7297    0.2774    0.0000    0.0172    0.0000  180.0000    0.0250   285   181   182     6
   182    3.7125    0.2774    0.0000    0.0172    0.0000  180.0000    0.0250   286   182   183     6
   183    3.6954    0.2774    0.0000    0.0172    0.0000  180.0000    0.0250   287   183   184     6
   184    3.6782    0.2774    0.0000    0.0172    0.0000  180.0000    0.0250   288   184   185     6
   185    3.6611    0.2774    0.0000    0.0172    0.0000  180.0000    0.0250   289   185   186     6
   186    3.6439    0.2774    0.0000    0.0172    0.0000  180.0000    0.0250   290   186   187     6
   187    3.6267    0.2774    0.0000    0.0172    0.0000  180.0000    0.0250   291   187   188     6
   188    3.6096    0.2774    0.0000    0.0172    0.0000  180.0000    0.0250   292   188   189     6
   189    3.5924    0.2774    0.0000    0.0172    0.0000  180.0000    0.0250   293   189   190     6
   190    3.5753    0.2774    0.0000    0.0172    0.0000  180.0000    0.0250   294   190   191     6
   191    3.5581    0.2774    0.0000    0.0172    0.0000  180.0000    0.0250   295   191   192     6
   192    3.5409    0.2774    0.0000    0.0172    0.0000  180.0000    0.0250   296   192   193     6
   193    3.5238    0.2774    0.0000    0.0172    0.0000  180.0000    0.0250   297   193   194     6
   194    3.5066    0.2774    0.0000    0.0172    0.0000  180.0000    0.0250   298   194   195     6
   195    3.4895    0.2774    0.0000    0.0172    0.0000  180.0000    0.0250   299   195   196     6
   196    3.4723    0.2774    0.0000    0.0172    0.0000  180.0000    0.0250   300   196   197     6
   197    3.4552    0.2774    0.0000    0.0172    0.0000  180.0000    0.0250   301   197   198     6
   198    3.4380    0.2774    0.0000    0.0172    0.0000  180.0000    0.0250   302   198   199     6
   199    3.4208    0.2774    0.0000    0.0172    0.0000  180.0000    0.0250   303   199   200     6
   200    3.4037    0.2774    0.0000    0.0172    0.0000  180.0000    0.0250   304   200   201     6
   201    3.3865    0.2774    0.0000    0.0172    0.0000  180.0000    0.0250   305   201   202     6
   202    3.3694    0.2774    0.0000    0.0172    0.0000  180.0000    0.0250   306   202   203     6
   203    3.3522    0.2774    0.0000    0.0172    0.0000  180.0000    0.0250   307   203   204     6
   204    3.3350    0.2774    0.0000    0.0172    0.0000  180.0000    0.0250   308   204   205     6
   205    3.3179    0.2774    0.0000    0.0172    0.0000  180.0000    0.0250   309   205   206     6
   206    3.3007    0.2774    0.0000    0.0172    0.0000  180.0000    0.0250   310   206   207     6
   207    3.2836    0.2774    0.0000    0.0172    0.0000  180.0000    0.0250   311   207   208     6
   208    3.2664    0.2774    0.0000    0.0172    0.0000  180.0000    0.0250   312   208   209     6
   209    3.2492    0.2774    0.0000    0.0172    0.0000  180.0000    0.0250   313   209   210     6
   210    3.2321    0.2774    0.0000    0.0172    0.0000  180.0000    0.0250   314   210  -315     6
   211    3.8241   -0.2695    0.0000    0.0159    0.0000   90.0000    0.0250  -246   211   212     7
   212    3.8241   -0.2537    0.0000    0.0159    0.0000   90.0000    0.0250   316   212   213     7
   213    3.8241   -0.2378    0.0000    0.0159    0.0000   90.0000    0.0250   317   213   214     7
   214    3.8241   -0.2220    0.0000    0.0159    0.0000   90.0000    0.0250   318   214   215     7
   215    3.8241   -0.2061    0.0000    0.0159    0.0000   90.0000    0.0250   319   215   216     7
   216    3.8241   -0.1902    0.0000    0.0159    0.0000   90.0000    0.0250   320   216   217     7
   217    3.8241   -0.1744    0.0000    0.0159    0.0000   90.0000    0.0250   321   217   218     7
   218    3.8241   -0.1585    0.0000    0.0159    0.0000   90.0000    0.0250   322   218   219     7
   219    3.8241   -0.1427    0.0000    0.0159    0.0000   90.0000    0.0250   323   219   220     7
   220    3.8241   -0.1268    0.0000    0.0159    0.0000   90.0000    0.0250   324   220   221     7
   221    3.8241   -0.1110    0.0000    0.0159    0.0000   90.0000    0.0250   325   221   222     7
   222    3.8241   -0.0951    0.0000    0.0159    0.0000   90.0000    0.0250   326   222   223     7
   223    3.8241   -0.0793    0.0000    0.0159    0.0000   90.0000    0.0250   327   223   224     7
   224    3.8241   -0.0634    0.0000    0.0159    0.0000   90.0000    0.0250   328   224   225     7
   225    3.8241   -0.0476    0.0000    0.0159    0.0000   90.0000    0.0250   329   225   226     7
   226    3.8241   -0.0317    0.0000    0.0159    0.0000   90.0000    0.0250   330   226   227     7
   227    3.8241   -0.0159    0.0000    0.0159    0.0000   90.0000    0.0250   331   227   228     7
   228    3.8241    0.0000    0.0000    0.0159    0.0000   90.0000    0.0250   332   228   229     7
   229    3.8241    0.0159    0.0000    0.0159    0.0000   90.0000    0.0250   333   229   230     7
   230    3.8241    0.0317    0.0000    0.0159    0.0000   90.0000    0.0250   334   230   231     7
   231    3.8241    0.0476    0.0000    0.0159    0.0000   90.0000    0.0250   335   231   232     7
   232    3.8241    0.0634    0.0000    0.0159    0.0000   90.0000    0.0250   336   232   233     7
   233    3.8241    0.0793    0.0000    0.0159    0.0000   90.0000    0.0250   337   233   234     7
   234    3.8241    0.0951    0.0000    0.0159    0.0000   90.0000    0.0250   338   234   235     7
   235    3.8241    0.1110    0.0000    0.0159    0.0000   90.0000    0.0250   339   235   236     7
   236    3.8241    0.1268    0.0000    0.0159    0.0000   90.0000    0.0250   340   236   237     7
   237    3.8241    0.1427    0.0000    0.0159    0.0000   90.0000    0.0250   341   237   238     7
   238    3.8241    0.1585    0.0000    0.0159    0.0000   90.0000    0.0250   342   238   239     7
   239    3.8241    0.1744    0.0000    0.0159    0.0000   90.0000    0.0250   343   239   240     7
   240    3.8241    0.1902    0.0000    0.0159    0.0000   90.0000    0.0250   344   240   241     7
   241    3.8241    0.2061    0.0000    0.0159    0.0000   90.0000    0.0250   345   241   242     7
   242    3.8241    0.2220    0.0000    0.0159    0.0000   90.0000    0.0250   346   242   243     7
   243    3.8241    0.2378    0.0000    0.0159    0.0000   90.0000    0.0250   347   243   244     7
   244    3.8241    0.2537    0.0000    0.0159    0.0000   90.0000    0.0250   348   244   245     7
   245    3.8241    0.2695    0.0000    0.0159    0.0000   90.0000    0.0250   349   245   281     7
   246    3.8155   -0.2774    0.0000    0.0172    0.0000  180.0000    0.0250  -316   246   247     8
   247    3.7983   -0.2774    0.0000    0.0172    0.0000  180.0000    0.0250   351   247   248     8
   248    3.7812   -0.2774    0.0000    0.0172    0.0000  180.0000    0.0250   352   248   249     8
   249    3.7640   -0.2774    0.0000    0.0172    0.0000  180.0000    0.0250   353   249   250     8
   250    3.7469   -0.2774    0.0000    0.0172    0.0000  180.0000    0.0250   354   250   251     8
   251    3.7297   -0.2774    0.0000    0.0172    0.0000  180.0000    0.0250   355   251   252     8
   252    3.7125   -0.2774    0.0000    0.0172    0.0000  180.0000    0.0250   356   252   253     8
   253    3.6954   -0.2774    0.0000    0.0172    0.0000  180.0000    0.0250   357   253   254     8
   254    3.6782   -0.2774    0.0000    0.0172    0.0000  180.0000    0.0250   358   254   255     8
   255    3.6611   -0.2774    0.0000    0.0172    0.0000  180.0000    0.0250   359   255   256     8
   256    3.6439   -0.2774    0.0000    0.0172    0.0000  180.0000    0.0250   360   256   257     8
   257    3.6267   -0.2774    0.0000    0.0172    0.0000  180.0000    0.0250   361   257   258     8
   258    3.6096   -0.2774    0.0000    0.0172    0.0000  180.0000    0.0250   362   258   259     8
   259    3.5924   -0.2774    0.0000    0.0172    0.0000  180.0000    0.0250   363   259   260     8
   260    3.5753   -0.2774    0.0000    0.0172    0.0000  180.0000    0.0250   364   260   261     8
   261    3.5581   -0.2774    0.0000    0.0172    0.0000  180.0000    0.0250   365   261   262     8
   262    3.5409   -0.2774    0.0000    0.0172    0.0000  180.0000    0.0250   366   262   263     8
   263    3.5238   -0.2774    0.0000    0.0172    0.0000  180.0000    0.0250   367   263   264     8
   264    3.5066   -0.2774    0.0000    0.0172    0.0000  180.0000    0.0250   368   264   265     8
   265    3.4895   -0.2774    0.0000    0.0172    0.0000  180.0000    0.0250   369   265   266     8
   266    3.4723   -0.2774    0.0000    0.0172    0.0000  180.0000    0.0250   370   266   267     8
   267    3.4552   -0.2774    0.0000    0.0172    0.0000  180.0000    0.0250   371   267   268     8
   268    3.4380   -0.2774    0.0000    0.0172    0.0000  180.0000    0.0250   372   268   269     8
   269    3.4208   -0.2774    0.0000    0.0172    0.0000  180.0000    0.0250   373   269   270     8
   270    3.4037   -0.2774    0.0000    0.0172    0.0000  180.0000    0.0250   374   270   271     8
   271    3.3865   -0.2774    0.0000    0.0172    0.0000  180.0000    0.0250   375   271   272     8
   272    3.3694   -0.2774    0.0000    0.0172    0.0000  180.0000    0.0250   376   272   273     8
   273    3.3522   -0.2774    0.0000    0.0172    0.0000  180.0000    0.0250   377   273   274     8
   274    3.3350   -0.2774    0.0000    0.0172    0.0000  180.0000    0.0250   378   274   275     8
   275    3.3179   -0.2774    0.0000    0.0172    0.0000  180.0000    0.0250   379   275   276     8
   276    3.3007   -0.2774    0.0000    0.0172    0.0000  180.0000    0.0250   380   276   277     8
   277    3.2836   -0.2774    0.0000    0.0172    0.0000  180.0000    0.0250   381   277   278     8
   278    3.2664   -0.2774    0.0000    0.0172    0.0000  180.0000    0.0250   382   278   279     8
   279    3.2492   -0.2774    0.0000    0.0172    0.0000  180.0000    0.0250   383   279   280     8
   280    3.2321   -0.2774    0.0000    0.0172    0.0000  180.0000    0.0250   384   280  -385     8
   281    3.8155    0.2774    0.0000    0.0172    0.0000  180.0000    0.0250   350   281   282     9
   282    3.7983    0.2774    0.0000    0.0172    0.0000  180.0000    0.0250   386   282   283     9
   283    3.7812    0.2774    0.0000    0.0172    0.0000  180.0000    0.0250   387   283   284     9
   284    3.7640    0.2774    0.0000    0.0172    0.0000  180.0000    0.0250   388   284   285     9
   285    3.7469    0.2774    0.0000    0.0172    0.0000  180.0000    0.0250   389   285   286     9
   286    3.7297    0.2774    0.0000    0.0172    0.0000  180.0000    0.0250   390   286   287     9
   287    3.7125    0.2774    0.0000    0.0172    0.0000  180.0000    0.0250   391   287   288     9
   288    3.6954    0.2774    0.0000    0.0172    0.0000  180.0000    0.0250   392   288   289     9
   289    3.6782    0.2774    0.0000    0.0172    0.0000  180.0000    0.0250   393   289   290     9
   290    3.6611    0.2774    0.0000    0.0172    0.0000  180.0000    0.0250   394   290   291     9
   291    3.6439    0.2774    0.0000    0.0172    0.0000  180.0000    0.0250   395   291   292     9
   292    3.6267    0.2774    0.0000    0.0172    0.0000  180.0000    0.0250   396   292   293     9
   293    3.6096    0.2774    0.0000    0.0172    0.0000  180.0000    0.0250   397   293   294     9
   294    3.5924    0.2774    0.0000    0.0172    0.0000  180.0000    0.0250   398   294   295     9
   295    3.5753    0.2774    0.0000    0.0172    0.0000  180.0000    0.0250   399   295   296     9
   296    3.5581    0.2774    0.0000    0.0172    0.0000  180.0000    0.0250   400   296   297     9
   297    3.5409    0.2774    0.0000    0.0172    0.0000  180.0000    0.0250   401   297   298     9
   298    3.5238    0.2774    0.0000    0.0172    0.0000  180.0000    0.0250   402   298   299     9
   299    3.5066    0.2774    0.0000    0.0172    0.0000  180.0000    0.0250   403   299   300     9
   300    3.4895    0.2774    0.0000    0.0172    0.0000  180.0000    0.0250   404   300   301     9
   301    3.4723    0.2774    0.0000    0.0172    0.0000  180.0000    0.0250   405   301   302     9
   302    3.4552    0.2774    0.0000    0.0172    0.0000  180.0000    0.0250   406   302   303     9
   303    3.4380    0.2774    0.0000    0.0172    0.0000  180.0000    0.0250   407   303   304     9
   304    3.4208    0.2774    0.0000    0.0172    0.0000  180.0000    0.0250   408   304   305     9
   305    3.4037    0.2774    0.0000    0.0172    0.0000  180.0000    0.0250   409   305   306     9
   306    3.3865    0.2774    0.0000    0.0172    0.0000  180.0000    0.0250   410   306   307     9
   307    3.3694    0.2774    0.0000    0.0172    0.0000  180.0000    0.0250   411   307   308     9
   308    3.3522    0.2774    0.0000    0.0172    0.0000  180.0000    0.0250   412   308   309     9
   309    3.3350    0.2774    0.0000    0.0172    0.0000  180.0000    0.0250   413   309   310     9
   310    3.3179    0.2774    0.0000    0.0172    0.0000  180.0000    0.0250   414   310   311     9
   311    3.3007    0.2774    0.0000    0.0172    0.0000  180.0000    0.0250   415   311   312     9
   312    3.2836    0.2774    0.0000    0.0172    0.0000  180.0000    0.0250   416   312   313     9
   313    3.2664    0.2774    0.0000    0.0172    0.0000  180.0000    0.0250   417   313   314     9
   314    3.2492    0.2774    0.0000    0.0172    0.0000  180.0000    0.0250   418   314   315     9
   315    3.2321    0.2774    0.0000    0.0172    0.0000  180.0000    0.0250   419   315  -420     9
   316    3.8241   -0.2695    0.0000    0.0159    0.0000   90.0000    0.0250  -351   316   317    10
   317    3.8241   -0.2537    0.0000    0.0159    0.0000   90.0000    0.0250   421   317   318    10
   318    3.8241   -0.2378    0.0000    0.0159    0.0000   90.0000    0.0250   422   318   319    10
   319    3.8241   -0.2220    0.0000    0.0159    0.0000   90.0000    0.0250   423   319   320    10
   320    3.8241   -0.2061    0.0000    0.0159    0.0000   90.0000    0.0250   424   320   321    10
   321    3.8241   -0.1902    0.0000    0.0159    0.0000   90.0000    0.0250   425   321   322    10
   322    3.8241   -0.1744    0.0000    0.0159    0.0000   90.0000    0.0250   426   322   323    10
   323    3.8241   -0.1585    0.0000    0.0159    0.0000   90.0000    0.0250   427   323   324    10
   324    3.8241   -0.1427    0.0000    0.0159    0.0000   90.0000    0.0250   428   324   325    10
   325    3.8241   -0.1268    0.0000    0.0159    0.0000   90.0000    0.0250   429   325   326    10
   326    3.8241   -0.1110    0.0000    0.0159    0.0000   90.0000    0.0250   430   326   327    10
   327    3.8241   -0.0951    0.0000    0.0159    0.0000   90.0000    0.0250   431   327   328    10
   328    3.8241   -0.0793    0.0000    0.0159    0.0000   90.0000    0.0250   432   328   329    10
   329    3.8241   -0.0634    0.0000    0.0159    0.0000   90.0000    0.0250   433   329   330    10
   330    3.8241   -0.0476    0.0000    0.0159    0.0000   90.0000    0.0250   434   330   331    10
   331    3.8241   -0.0317    0.0000    0.0159    0.0000   90.0000    0.0250   435   331   332    10
   332    3.8241   -0.0159    0.0000    0.0159    0.0000   90.0000    0.0250   436   332   333    10
   333    3.8241    0.0000    0.0000    0.0159    0.0000   90.0000    0.0250   437   333   334    10
   334    3.8241    0.0159    0.0000    0.0159    0.0000   90.0000    0.0250   438   334   335    10
   335    3.8241    0.0317    0.0000    0.0159    0.0000   90.0000    0.0250   439   335   336    10
   336    3.8241    0.0476    0.0000    0.0159    0.0000   90.0000    0.0250   440   336   337    10
   337    3.8241    0.0634    0.0000    0.0159    0.0000   90.0000    0.0250   441   337   338    10
   338    3.8241    0.0793    0.0000    0.0159    0.0000   90.0000    0.0250   442   338   339    10
   339    3.8241    0.0951    0.0000    0.0159    0.0000   90.0000    0.0250   443   339   340    10
   340    3.8241    0.1110    0.0000    0.0159    0.0000   90.0000    0.0250   444   340   341    10
   341    3.8241    0.1268    0.0000    0.0159    0.0000   90.0000    0.0250   445   341   342    10
   342    3.8241    0.1427    0.0000    0.0159    0.0000   90.0000    0.0250   446   342   343    10
   343    3.8241    0.1585    0.0000    0.0159    0.0000   90.0000    0.0250   447   343   344    10
   344    3.8241    0.1744    0.0000    0.0159    0.0000   90.0000    0.0250   448   344   345    10
   345    3.8241    0.1902    0.0000    0.0159    0.0000   90.0000    0.0250   449   345   346    10
   346    3.8241    0.2061    0.0000    0.0159    0.0000   90.0000    0.0250   450   346   347    10
   347    3.8241    0.2220    0.0000    0.0159    0.0000   90.0000    0.0250   451   347   348    10
   348    3.8241    0.2378    0.0000    0.0159    0.0000   90.0000    0.0250   452   348   349    10
   349    3.8241    0.2537    0.0000    0.0159    0.0000   90.0000    0.0250   453   349   350    10
   350    3.8241    0.2695    0.0000    0.0159    0.0000   90.0000    0.0250   454   350   386    10
   351    3.8155   -0.2774    0.0000    0.0172    0.0000  180.0000    0.0250  -421   351   352    11
   352    3.7983   -0.2774    0.0000    0.0172    0.0000  180.0000    0.0250   456   352   353    11
   353    3.7812   -0.2774    0.0000    0.0172    0.0000  180.0000    0.0250   457   353   354    11
   354    3.7640   -0.2774    0.0000    0.0172    0.0000  180.0000    0.0250   458   354   355    11
   355    3.7469   -0.2774    0.0000    0.0172    0.0000  180.0000    0.0250   459   355   356    11
   356    3.7297   -0.2774    0.0000    0.0172    0.0000  180.0000    0.0250   460   356   357    11
   357    3.7125   -0.2774    0.0000    0.0172    0.0000  180.0000    0.0250   461   357   358    11
   358    3.6954   -0.2774    0.0000    0.0172    0.0000  180.0000    0.0250   462   358   359    11
   359    3.6782   -0.2774    0.0000    0.0172    0.0000  180.0000    0.0250   463   359   360    11
   360    3.6611   -0.2774    0.0000    0.0172    0.0000  180.0000    0.0250   464   360   361    11
   361    3.6439   -0.2774    0.0000    0.0172    0.0000  180.0000    0.0250   465   361   362    11
   362    3.6267   -0.2774    0.0000    0.0172    0.0000  180.0000    0.0250   466   362   363    11
   363    3.6096   -0.2774    0.0000    0.0172    0.0000  180.0000    0.0250   467   363   364    11
   364    3.5924   -0.2774    0.0000    0.0172    0.0000  180.0000    0.0250   468   364   365    11
   365    3.5753   -0.2774    0.0000    0.0172    0.0000  180.0000    0.0250   469   365   366    11
   366    3.5581   -0.2774    0.0000    0.0172    0.0000  180.0000    0.0250   470   366   367    11
   367    3.5409   -0.2774    0.0000    0.0172    0.0000  180.0000    0.0250   471   367   368    11
   368    3.5238   -0.2774    0.0000    0.0172    0.0000  180.0000    0.0250   472   368   369    11
   369    3.5066   -0.2774    0.0000    0.0172    0.0000  180.0000    0.0250   473   369   370    11
   370    3.4895   -0.2774    0.0000    0.0172    0.0000  180.0000    0.0250   474   370   371    11
   371    3.4723   -0.2774    0.0000    0.0172    0.0000  180.0000    0.0250   475   371   372    11
   372    3.4552   -0.2774    0.0000    0.0172    0.0000  180.0000    0.0250   476   372   373    11
   373    3.4380   -0.2774    0.0000    0.0172    0.0000  180.0000    0.0250   477   373   374    11
   374    3.4208   -0.2774    0.0000    0.0172    0.0000  180.0000    0.0250   478   374   375    11
   375    3.4037   -0.2774    0.0000    0.0172    0.0000  180.0000    0.0250   479   375   376    11
   376    3.3865   -0.2774    0.0000    0.0172    0.0000  180.0000    0.0250   480   376   377    11
   377    3.3694   -0.2774    0.0000    0.0172    0.0000  180.0000    0.0250   481   377   378    11
   378    3.3522   -0.2774    0.0000    0.0172    0.0000  180.0000    0.0250   482   378   379    11
   379    3.3350   -0.2774    0.0000    0.0172    0.0000  180.0000    0.0250   483   379   380    11
   380    3.3179   -0.2774    0.0000    0.0172    0.0000  180.0000    0.0250   484   380   381    11
   381    3.3007   -0.2774    0.0000    0.0172    0.0000  180.0000    0.0250   485   381   382    11
   382    3.2836   -0.2774    0.0000    0.0172    0.0000  180.0000    0.0250   486   382   383    11
   383    3.2664   -0.2774    0.0000    0.0172    0.0000  180.0000    0.0250   487   383   384    11
   384    3.2492   -0.2774    0.0000    0.0172    0.0000  180.0000    0.0250   488   384   385    11
   385    3.2321   -0.2774    0.0000    0.0172    0.0000  180.0000    0.0250   489   385  -490    11
   386    3.8155    0.2774    0.0000    0.0172    0.0000  180.0000    0.0250   455   386   387    12
   387    3.7983    0.2774    0.0000    0.0172    0.0000  180.0000    0.0250   491   387   388    12
   388    3.7812    0.2774    0.0000    0.0172    0.0000  180.0000    0.0250   492   388   389    12
   389    3.7640    0.2774    0.0000    0.0172    0.0000  180.0000    0.0250   493   389   390    12
   390    3.7469    0.2774    0.0000    0.0172    0.0000  180.0000    0.0250   494   390   391    12
   391    3.7297    0.2774    0.0000    0.0172    0.0000  180.0000    0.0250   495   391   392    12
   392    3.7125    0.2774    0.0000    0.0172    0.0000  180.0000    0.0250   496   392   393    12
   393    3.6954    0.2774    0.0000    0.0172    0.0000  180.0000    0.0250   497   393   394    12
   394    3.6782    0.2774    0.0000    0.0172    0.0000  180.0000    0.0250   498   394   395    12
   395    3.6611    0.2774    0.0000    0.0172    0.0000  180.0000    0.0250   499   395   396    12
   396    3.6439    0.2774    0.0000    0.0172    0.0000  180.0000    0.0250   500   396   397    12
   397    3.6267    0.2774    0.0000    0.0172    0.0000  180.0000    0.0250   501   397   398    12
   398    3.6096    0.2774    0.0000    0.0172    0.0000  180.0000    0.0250   502   398   399    12
   399    3.5924    0.2774    0.0000    0.0172    0.0000  180.0000    0.0250   503   399   400    12
   400    3.5753    0.2774    0.0000    0.0172    0.0000  180.0000    0.0250   504   400   401    12
   401    3.5581    0.2774    0.0000    0.0172    0.0000  180.0000    0.0250   505   401   402    12
   402    3.5409    0.2774    0.0000    0.0172    0.0000  180.0000    0.0250   506   402   403    12
   403    3.5238    0.2774    0.0000    0.0172    0.0000  180.0000    0.0250   507   403   404    12
   404    3.5066    0.2774    0.0000    0.0172    0.0000  180.0000    0.0250   508   404   405    12
   405    3.4895    0.2774    0.0000    0.0172    0.0000  180.0000    0.0250   509   405   406    12
   406    3.4723    0.2774    0.0000    0.0172    0.0000  180.0000    0.0250   510   406   407    12
   407    3.4552    0.2774    0.0000    0.0172    0.0000  180.0000    0.0250   511   407   408    12
   408    3.4380    0.2774    0.0000    0.0172    0.0000  180.0000    0.0250   512   408   409    12
   409    3.4208    0.2774    0.0000    0.0172    0.0000  180.0000    0.0250   513   409   410    12
   410    3.4037    0.2774    0.0000    0.0172    0.0000  180.0000    0.0250   514   410   411    12
   411    3.3865    0.2774    0.0000    0.0172    0.0000  180.0000    0.0250   515   411   412    12
   412    3.3694    0.2774    0.0000    0.0172    0.0000  180.0000    0.0250   516   412   413    12
   413    3.3522    0.2774    0.0000    0.0172    0.0000  180.0000    0.0250   517   413   414    12
   414    3.3350    0.2774    0.0000    0.0172    0.0000  180.0000    0.0250   518   414   415    12
   415    3.3179    0.2774    0.0000    0.0172    0.0000  180.0000    0.0250   519   415   416    12
   416    3.3007    0.2774    0.0000    0.0172    0.0000  180.0000    0.0250   520   416   417    12
   417    3.2836    0.2774    0.0000    0.0172    0.0000  180.0000    0.0250   521   417   418    12
   418    3.2664    0.2774    0.0000    0.0172    0.0000  180.0000    0.0250   522   418   419    12
   419    3.2492    0.2774    0.0000    0.0172    0.0000  180.0000    0.0250   523   419   420    12
   420    3.2321    0.2774    0.0000    0.0172    0.0000  180.0000    0.0250   524   420  -525    12
   421    3.8241   -0.2695    0.0000    0.0159    0.0000   90.0000    0.0250  -456   421   422    13
   422    3.8241   -0.2537    0.0000    0.0159    0.0000   90.0000    0.0250   106   422   423    13
   423    3.8241   -0.2378    0.0000    0.0159    0.0000   90.0000    0.0250   107   423   424    13
   424    3.8241   -0.2220    0.0000    0.0159    0.0000   90.0000    0.0250   108   424   425    13
   425    3.8241   -0.2061    0.0000    0.0159    0.0000   90.0000    0.0250   109   425   426    13
   426    3.8241   -0.1902    0.0000    0.0159    0.0000   90.0000    0.0250   110   426   427    13
   427    3.8241   -0.1744    0.0000    0.0159    0.0000   90.0000    0.0250   111   427   428    13
   428    3.8241   -0.1585    0.0000    0.0159    0.0000   90.0000    0.0250   112   428   429    13
   429    3.8241   -0.1427    0.0000    0.0159    0.0000   90.0000    0.0250   113   429   430    13
   430    3.8241   -0.1268    0.0000    0.0159    0.0000   90.0000    0.0250   114   430   431    13
   431    3.8241   -0.1110    0.0000    0.0159    0.0000   90.0000    0.0250   115   431   432    13
   432    3.8241   -0.0951    0.0000    0.0159    0.0000   90.0000    0.0250   116   432   433    13
   433    3.8241   -0.0793    0.0000    0.0159    0.0000   90.0000    0.0250   117   433   434    13
   434    3.8241   -0.0634    0.0000    0.0159    0.0000   90.0000    0.0250   118   434   435    13
   435    3.8241   -0.0476    0.0000    0.0159    0.0000   90.0000    0.0250   119   435   436    13
   436    3.8241   -0.0317    0.0000    0.0159    0.0000   90.0000    0.0250   120   436   437    13
   437    3.8241   -0.0159    0.0000    0.0159    0.0000   90.0000    0.0250   121   437   438    13
   438    3.8241    0.0000    0.0000    0.0159    0.0000   90.0000    0.0250   122   438   439    13
   439    3.8241    0.0159    0.0000    0.0159    0.0000   90.0000    0.0250   123   439   440    13
   440    3.8241    0.0317    0.0000    0.0159    0.0000   90.0000    0.0250   124   440   441    13
   441    3.8241    0.0476    0.0000    0.0159    0.0000   90.0000    0.0250   125   441   442    13
   442    3.8241    0.0634    0.0000    0.0159    0.0000   90.0000    0.0250   126   442   443    13
   443    3.8241    0.0793    0.0000    0.0159    0.0000   90.0000    0.0250   127   443   444    13
   444    3.8241    0.0951    0.0000    0.0159    0.0000   90.0000    0.0250   128   444   445    13
   445    3.8241    0.1110    0.0000    0.0159    0.0000   90.0000    0.0250   129   445   446    13
   446    3.8241    0.1268    0.0000    0.0159    0.0000   90.0000    0.0250   130   446   447    13
   447    3.8241    0.1427    0.0000    0.0159    0.0000   90.0000    0.0250   131   447   448    13
   448    3.8241    0.1585    0.0000    0.0159    0.0000   90.0000    0.0250   132   448   449    13
   449    3.8241    0.1744    0.0000    0.0159    0.0000   90.0000    0.0250   133   449   450    13
   450    3.8241    0.1902    0.0000    0.0159    0.0000   90.0000    0.0250   134   450   451    13
   451    3.8241    0.2061    0.0000    0.0159    0.0000   90.0000    0.0250   135   451   452    13
   452    3.8241    0.2220    0.0000    0.0159    0.0000   90.0000    0.0250   136   452   453    13
   453    3.8241    0.2378    0.0000    0.0159    0.0000   90.0000    0.0250   137   453   454    13
   454    3.8241    0.2537    0.0000    0.0159    0.0000   90.0000    0.0250   138   454   455    13
   455    3.8241    0.2695    0.0000    0.0159    0.0000   90.0000    0.0250   139   455   491    13
   456    3.8155   -0.2774    0.0000    0.0172    0.0000  180.0000    0.0250  -106   456   457    14
   457    3.7983   -0.2774    0.0000    0.0172    0.0000  180.0000    0.0250   141   457   458    14
   458    3.7812   -0.2774    0.0000    0.0172    0.0000  180.0000    0.0250   142   458   459    14
   459    3.7640   -0.2774    0.0000    0.0172    0.0000  180.0000    0.0250   143   459   460    14
   460    3.7469   -0.2774    0.0000    0.0172    0.0000  180.0000    0.0250   144   460   461    14
   461    3.7297   -0.2774    0.0000    0.0172    0.0000  180.0000    0.0250   145   461   462    14
   462    3.7125   -0.2774    0.0000    0.0172    0.0000  180.0000    0.0250   146   462   463    14
   463    3.6954   -0.2774    0.0000    0.0172    0.0000  180.0000    0.0250   147   463   464    14
   464    3.6782   -0.2774    0.0000    0.0172    0.0000  180.0000    0.0250   148   464   465    14
   465    3.6611   -0.2774    0.0000    0.0172    0.0000  180.0000    0.0250   149   465   466    14
   466    3.6439   -0.2774    0.0000    0.0172    0.0000  180.0000    0.0250   150   466   467    14
   467    3.6267   -0.2774    0.0000    0.0172    0.0000  180.0000    0.0250   151   467   468    14
   468    3.6096   -0.2774    0.0000    0.0172    0.0000  180.0000    0.0250   152   468   469    14
   469    3.5924   -0.2774    0.0000    0.0172    0.0000  180.0000    0.0250   153   469   470    14
   470    3.5753   -0.2774    0.0000    0.0172    0.0000  180.0000    0.0250   154   470   471    14
   471    3.5581   -0.2774    0.0000    0.0172    0.0000  180.0000    0.0250   155   471   472    14
   472    3.5409   -0.2774    0.0000    0.0172    0.0000  180.0000    0.0250   156   472   473    14
   473    3.5238   -0.2774    0.0000    0.0172    0.0000  180.0000    0.0250   157   473   474    14
   474    3.5066   -0.2774    0.0000    0.0172    0.0000  180.0000    0.0250   158   474   475    14
   475    3.4895   -0.2774    0.0000    0.0172    0.0000  180.0000    0.0250   159   475   476    14
   476    3.4723   -0.2774    0.0000    0.0172    0.0000  180.0000    0.0250   160   476   477    14
   477    3.4552   -0.2774    0.0000    0.0172    0.0000  180.0000    0.0250   161   477   478    14
   478    3.4380   -0.2774    0.0000    0.0172    0.0000  180.0000    0.0250   162   478   479    14
   479    3.4208   -0.2774    0.0000    0.0172    0.0000  180.0000    0.0250   163   479   480    14
   480    3.4037   -0.2774    0.0000    0.0172    0.0000  180.0000    0.0250   164   480   481    14
   481    3.3865   -0.2774    0.0000    0.0172    0.0000  180.0000    0.0250   165   481   482    14
   482    3.3694   -0.2774    0.0000    0.0172    0.0000  180.0000    0.0250   166   482   483    14
   483    3.3522   -0.2774    0.0000    0.0172    0.0000  180.0000    0.0250   167   483   484    14
   484    3.3350   -0.2774    0.0000    0.0172    0.0000  180.0000    0.0250   168   484   485    14
   485    3.3179   -0.2774    0.0000    0.0172    0.0000  180.0000    0.0250   169   485   486    14
   486    3.3007   -0.2774    0.0000    0.0172    0.0000  180.0000    0.0250   170   486   487    14
   487    3.2836   -0.2774    0.0000    0.0172    0.0000  180.0000    0.0250   171   487   488    14
   488    3.2664   -0.2774    0.0000    0.0172    0.0000  180.0000    0.0250   172   488   489    14
   489    3.2492   -0.2774    0.0000    0.0172    0.0000  180.0000    0.0250   173   489   490    14
   490    3.2321   -0.2774    0.0000    0.0172    0.0000  180.0000    0.0250   174   490  -175    14
   491    3.8155    0.2774    0.0000    0.0172    0.0000  180.0000    0.0250   140   491   492    15
   492    3.7983    0.2774    0.0000    0.0172    0.0000  180.0000    0.0250   176   492   493    15
   493    3.7812    0.2774    0.0000    0.0172    0.0000  180.0000    0.0250   177   493   494    15
   494    3.7640    0.2774    0.0000    0.0172    0.0000  180.0000    0.0250   178   494   495    15
   495    3.7469    0.2774    0.0000    0.0172    0.0000  180.0000    0.0250   179   495   496    15
   496    3.7297    0.2774    0.0000    0.0172    0.0000  180.0000    0.0250   180   496   497    15
   497    3.7125    0.2774    0.0000    0.0172    0.0000  180.0000    0.0250   181   497   498    15
   498    3.6954    0.2774    0.0000    0.0172    0.0000  180.0000    0.0250   182   498   499    15
   499    3.6782    0.2774    0.0000    0.0172    0.0000  180.0000    0.0250   183   499   500    15
   500    3.6611    0.2774    0.0000    0.0172    0.0000  180.0000    0.0250   184   500   501    15
   501    3.6439    0.2774    0.0000    0.0172    0.0000  180.0000    0.0250   185   501   502    15
   502    3.6267    0.2774    0.0000    0.0172    0.0000  180.0000    0.0250   186   502   503    15
   503    3.6096    0.2774    0.0000    0.0172    0.0000  180.0000    0.0250   187   503   504    15
   504    3.5924    0.2774    0.0000    0.0172    0.0000  180.0000    0.0250   188   504   505    15
   505    3.5753    0.2774    0.0000    0.0172    0.0000  180.0000    0.0250   189   505   506    15
   506    3.5581    0.2774    0.0000    0.0172    0.0000  180.0000    0.0250   190   506   507    15
   507    3.5409    0.2774    0.0000    0.0172    0.0000  180.0000    0.0250   191   507   508    15
   508    3.5238    0.2774    0.0000    0.0172    0.0000  180.0000    0.0250   192   508   509    15
   509    3.5066    0.2774    0.0000    0.0172    0.0000  180.0000    0.0250   193   509   510    15
   510    3.4895    0.2774    0.0000    0.0172    0.0000  180.0000    0.0250   194   510   511    15
   511    3.4723    0.2774    0.0000    0.0172    0.0000  180.0000    0.0250   195   511   512    15
   512    3.4552    0.2774    0.0000    0.0172    0.0000  180.0000    0.0250   196   512   513    15
   513    3.4380    0.2774    0.0000    0.0172    0.0000  180.0000    0.0250   197   513   514    15
   514    3.4208    0.2774    0.0000    0.0172    0.0000  180.0000    0.0250   198   514   515    15
   515    3.4037    0.2774    0.0000    0.0172    0.0000  180.0000    0.0250   199   515   516    15
   516    3.3865    0.2774    0.0000    0.0172    0.0000  180.0000    0.0250   200   516   517    15
   517    3.3694    0.2774    0.0000    0.0172    0.0000  180.0000    0.0250   201   517   518    15
   518    3.3522    0.2774    0.0000    0.0172    0.0000  180.0000    0.0250   202   518   519    15
   519    3.3350    0.2774    0.0000    0.0172    0.0000  180.0000    0.0250   203   519   520    15
   520    3.3179    0.2774    0.0000    0.0172    0.0000  180.0000    0.0250   204   520   521    15
   521    3.3007    0.2774    0.0000    0.0172    0.0000  180.0000    0.0250   205   521   522    15
   522    3.2836    0.2774    0.0000    0.0172    0.0000  180.0000    0.0250   206   522   523    15
   523    3.2664    0.2774    0.0000    0.0172    0.0000  180.0000    0.0250   207   523   524    15
   524    3.2492    0.2774    0.0000    0.0172    0.0000  180.0000    0.0250   208   524   525    15
   525    3.2321    0.2774    0.0000    0.0172    0.0000  180.0000    0.0250   209   525  -210    15



  DATA CARD No:   1 EX   0     1    18     0  0.00000E+00  0.00000E+00  0.00000E+00  0.00000E+00  0.00000E+00  0.00000E+00
  DATA CARD No:   2 EX   0     4    18     0  0.00000E+00  0.00000E+00  0.00000E+00  0.00000E+00  0.00000E+00  0.00000E+00
  DATA CARD No:   3 EX   0     7    18     0  0.00000E+00  0.00000E+00  0.00000E+00  0.00000E+00  0.00000E+00  0.00000E+00
  DATA CARD No:   4 EX   0    10    18     0  0.00000E+00  0.00000E+00  0.00000E+00  0.00000E+00  0.00000E+00  0.00000E+00
  DATA CARD No:   5 EX   0    13    18     0  0.00000E+00  0.00000E+00  0.00000E+00  0.00000E+00  0.00000E+00  0.00000E+00
  DATA CARD No:   6 FR   0     5     0     0  1.44000E+02  5.00000E-01  0.00000E+00  0.00000E+00  0.00000E+00  0.00000E+00
  DATA CARD No:   7 RP   0    21    21  1400  0.00000E+00 -1.80000E+02  9.00000E+00  1.80000E+01  0.00000E+00  0.00000E+00


                               --------- FREQUENCY --------
                                FREQUENCY : 1.4400E+02 MHz
                                WAVELENGTH: 2.0819E+00 Mtr

                        APPROXIMATE INTEGRATION EMPLOYED FOR SEGMENTS 
                        THAT ARE MORE THAN 1.000 WAVELENGTHS APART


                          ------ STRUCTURE IMPEDANCE LOADING ------
                                 THIS STRUCTURE IS NOT LOADED


                            -------- ANTENNA ENVIRONMENT --------
                            FREE SPACE
  PIVOT(211)=   1.24304582E-11
  PIVOT(212)=   1.24304582E-11
  PIVOT(213)=   1.24304582E-11
  PIVOT(214)=   1.24304582E-11
  PIVOT(215)=   1.24304582E-11
  PIVOT(216)=   1.24304582E-11
  PIVOT(217)=   1.24304582E-11
  PIVOT(218)=   1.24304582E-11
  PIVOT(219)=   1.24304582E-11
  PIVOT(220)=   1.24304582E-11
  PIVOT(221)=   1.24304582E-11
  PIVOT(222)=   1.24304582E-11
  PIVOT(223)=   1.24304582E-11
  PIVOT(224)=   1.24304582E-11
  PIVOT(225)=   1.24304582E-11
  PIVOT(226)=   1.24304582E-11
  PIVOT(227)=   1.24304582E-11
  PIVOT(228)=   1.24304582E-11
  PIVOT(229)=   1.24304582E-11
  PIVOT(230)=   1.24304582E-11
  PIVOT(231)=   1.24304582E-11
  PIVOT(232)=   1.24304582E-11
  PIVOT(233)=   1.24304582E-11
  PIVOT(234)=   1.24304582E-11
  PIVOT(235)=   1.24304582E-11
  PIVOT(236)=   1.24304582E-11
  PIVOT(237)=   1.24304582E-11
  PIVOT(238)=   1.24304582E-11
  PIVOT(239)=   1.24304582E-11
  PIVOT(240)=   1.24304582E-11
  PIVOT(241)=   1.24304582E-11
  PIVOT(242)=   1.24304582E-11
  PIVOT(243)=   1.24304582E-11
  PIVOT(246)=   4.89019366E-11
  PIVOT(247)=   4.89019366E-11
  PIVOT(248)=   4.89019366E-11
  PIVOT(249)=   4.89019366E-11
  PIVOT(250)=   4.89019366E-11
  PIVOT(251)=   4.89019366E-11
  PIVOT(252)=   4.89019366E-11
  PIVOT(253)=   4.89019366E-11
  PIVOT(254)=   4.89019366E-11
  PIVOT(255)=   4.89019366E-11
  PIVOT(256)=   4.89019366E-11
  PIVOT(257)=   4.89019366E-11
  PIVOT(258)=   4.89019366E-11
  PIVOT(259)=   4.89019366E-11
  PIVOT(260)=   4.89019366E-11
  PIVOT(261)=   4.89019366E-11
  PIVOT(262)=   4.89019366E-11
  PIVOT(263)=   4.89019366E-11
  PIVOT(264)=   4.89019366E-11
  PIVOT(265)=   4.89019366E-11
  PIVOT(266)=   4.89019366E-11
  PIVOT(267)=   4.89019366E-11
  PIVOT(268)=   4.89019366E-11
  PIVOT(269)=   4.89019366E-11
  PIVOT(270)=   4.89019366E-11
  PIVOT(271)=   4.89019366E-11
  PIVOT(272)=   4.89019366E-11
  PIVOT(273)=   4.89019366E-11
  PIVOT(274)=   4.89019366E-11
  PIVOT(275)=   4.89019366E-11
  PIVOT(276)=   4.89019366E-11
  PIVOT(277)=   4.89019366E-11
  PIVOT(278)=   4.89019366E-11
  PIVOT(281)=   4.89019366E-11
  PIVOT(282)=   4.89019366E-11
  PIVOT(283)=   4.89019366E-11
  PIVOT(284)=   4.89019366E-11
  PIVOT(285)=   4.89019366E-11
  PIVOT(286)=   4.89019366E-11
  PIVOT(287)=   4.89019366E-11
  PIVOT(288)=   4.89019366E-11
  PIVOT(289)=   4.89019366E-11
  PIVOT(290)=   4.89019366E-11
  PIVOT(291)=   4.89019366E-11
  PIVOT(292)=   4.89019366E-11
  PIVOT(293)=   4.89019366E-11
  PIVOT(294)=   4.89019366E-11
  PIVOT(295)=   4.89019366E-11
  PIVOT(296)=   4.89019366E-11
  PIVOT(297)=   4.89019366E-11
  PIVOT(298)=   4.89019366E-11
  PIVOT(299)=   4.89019366E-11
  PIVOT(300)=   4.89019366E-11
  PIVOT(301)=   4.89019366E-11
  PIVOT(302)=   4.89019366E-11
  PIVOT(303)=   4.89019366E-11
  PIVOT(304)=   4.89019366E-11
  PIVOT(305)=   4.89019366E-11
  PIVOT(306)=   4.89019366E-11
  PIVOT(307)=   4.89019366E-11
  PIVOT(308)=   4.89019366E-11
  PIVOT(309)=   4.89019366E-11
  PIVOT(310)=   4.89019366E-11
  PIVOT(311)=   4.89019366E-11
  PIVOT(312)=   4.89019366E-11
  PIVOT(313)=   4.89019366E-11
  PIVOT(316)=   1.24304582E-11
  PIVOT(317)=   1.24304582E-11
  PIVOT(318)=   1.24304582E-11
  PIVOT(319)=   1.24304582E-11
  PIVOT(320)=   1.24304582E-11
  PIVOT(321)=   1.24304582E-11
  PIVOT(322)=   1.24304582E-11
  PIVOT(323)=   1.24304582E-11
  PIVOT(324)=   1.24304582E-11
  PIVOT(325)=   1.24304582E-11
  PIVOT(326)=   1.24304582E-11
  PIVOT(327)=   1.24304582E-11
  PIVOT(328)=   1.24304582E-11
  PIVOT(329)=   1.24304582E-11
  PIVOT(330)=   1.24304582E-11
  PIVOT(331)=   1.24304582E-11
  PIVOT(332)=   1.24304582E-11
  PIVOT(333)=   1.24304582E-11
  PIVOT(334)=   1.24304582E-11
  PIVOT(335)=   1.24304582E-11
  PIVOT(336)=   1.24304582E-11
  PIVOT(337)=   1.24304582E-11
  PIVOT(338)=   1.24304582E-11
  PIVOT(339)=   1.24304582E-11
  PIVOT(340)=   1.24304582E-11
  PIVOT(341)=   1.24304582E-11
  PIVOT(342)=   1.24304582E-11
  PIVOT(343)=   1.24304582E-11
  PIVOT(344)=   1.24304582E-11
  PIVOT(345)=   1.24304582E-11
  PIVOT(346)=   1.24304582E-11
  PIVOT(347)=   1.24304582E-11
  PIVOT(348)=   1.24304582E-11
  PIVOT(351)=   4.89019366E-11
  PIVOT(352)=   4.89019366E-11
  PIVOT(353)=   4.89019366E-11
  PIVOT(354)=   4.89019366E-11
  PIVOT(355)=   4.89019366E-11
  PIVOT(356)=   4.89019366E-11
  PIVOT(357)=   4.89019366E-11
  PIVOT(358)=   4.89019366E-11
  PIVOT(359)=   4.89019366E-11
  PIVOT(360)=   4.89019366E-11
  PIVOT(361)=   4.89019366E-11
  PIVOT(362)=   4.89019366E-11
  PIVOT(363)=   4.89019366E-11
  PIVOT(364)=   4.89019366E-11
  PIVOT(365)=   4.89019366E-11
  PIVOT(366)=   4.89019366E-11
  PIVOT(367)=   4.89019366E-11
  PIVOT(368)=   4.89019366E-11
  PIVOT(369)=   4.89019366E-11
  PIVOT(370)=   4.89019366E-11
  PIVOT(371)=   4.89019366E-11
  PIVOT(372)=   4.89019366E-11
  PIVOT(373)=   4.89019366E-11
  PIVOT(374)=   4.89019366E-11
  PIVOT(375)=   4.89019366E-11
  PIVOT(376)=   4.89019366E-11
  PIVOT(377)=   4.89019366E-11
  PIVOT(378)=   4.89019366E-11
  PIVOT(379)=   4.89019366E-11
  PIVOT(380)=   4.89019366E-11
  PIVOT(381)=   4.89019366E-11
  PIVOT(382)=   4.89019366E-11
  PIVOT(383)=   4.89019366E-11
  PIVOT(386)=   4.89019366E-11
  PIVOT(387)=   4.89019366E-11
  PIVOT(388)=   4.89019366E-11
  PIVOT(389)=   4.89019366E-11
  PIVOT(390)=   4.89019366E-11
  PIVOT(391)=   4.89019366E-11
  PIVOT(392)=   4.89019366E-11
  PIVOT(393)=   4.89019366E-11
  PIVOT(394)=   4.89019366E-11
  PIVOT(395)=   4.89019366E-11
  PIVOT(396)=   4.89019366E-11
  PIVOT(397)=   4.89019366E-11
  PIVOT(398)=   4.89019366E-11
  PIVOT(399)=   4.89019366E-11
  PIVOT(400)=   4.89019366E-11
  PIVOT(401)=   4.89019366E-11
  PIVOT(402)=   4.89019366E-11
  PIVOT(403)=   4.89019366E-11
  PIVOT(404)=   4.89019366E-11
  PIVOT(405)=   4.89019366E-11
  PIVOT(406)=   4.89019366E-11
  PIVOT(407)=   4.89019366E-11
  PIVOT(408)=   4.89019366E-11
  PIVOT(409)=   4.89019366E-11
  PIVOT(410)=   4.89019366E-11
  PIVOT(411)=   4.89019366E-11
  PIVOT(412)=   4.89019366E-11
  PIVOT(413)=   4.89019366E-11
  PIVOT(414)=   4.89019366E-11
  PIVOT(415)=   4.89019366E-11
  PIVOT(416)=   4.89019366E-11
  PIVOT(417)=   4.89019366E-11
  PIVOT(418)=   4.89019366E-11


                             ---------- MATRIX TIMING ----------
                               FILL: 330 msec  FACTOR: 860 msec


                        --------- ANTENNA INPUT PARAMETERS ---------
  TAG   SEG       VOLTAGE (VOLTS)         CURRENT (AMPS)         IMPEDANCE (OHMS)        ADMITTANCE (MHOS)     POWER
  No:   No:     REAL      IMAGINARY     REAL      IMAGINARY     REAL      IMAGINARY    REAL       IMAGINARY   (WATTS)
    1    18  1.0000E+00  0.0000E+00  6.8205E-04  7.4351E-03  1.2235E+01 -1.3337E+02  6.8205E-04  7.4351E-03  3.4103E-04
    4   123  1.0000E+00  0.0000E+00  1.7149E-04  1.8157E-03  5.1556E+01 -5.4587E+02  1.7149E-04  1.8157E-03  8.5745E-05
    7   228  1.0000E+00  0.0000E+00  1.7149E-04  1.8157E-03  5.1556E+01 -5.4587E+02  1.7149E-04  1.8157E-03  8.5745E-05
   10   333  1.0000E+00  0.0000E+00  1.7149E-04  1.8157E-03  5.1556E+01 -5.4587E+02  1.7149E-04  1.8157E-03  8.5745E-05
   13   438  1.0000E+00  0.0000E+00  1.7149E-04  1.8157E-03  5.1556E+01 -5.4587E+02  1.7149E-04  1.8157E-03  8.5745E-05


                           -------- CURRENTS AND LOCATION --------
                                  DISTANCES IN WAVELENGTHS

   SEG  TAG    COORDINATES OF SEGM CENTER     SEGM    ------------- CURRENT (AMPS) -------------
   No:  No:       X         Y         Z      LENGTH     REAL      IMAGINARY    MAGN        PHASE
     1    1    0.0476   -0.1295    0.0000   0.00761  6.0956E-04 -2.8132E-03  2.8784E-03  -77.774
     2    1    0.0476   -0.1218    0.0000   0.00761  6.0235E-04 -2.8737E-03  2.9362E-03  -78.162
     3    1    0.0476   -0.1142    0.0000   0.00761  6.1718E-04 -2.7268E-03  2.7958E-03  -77.247
     4    1    0.0476   -0.1066    0.0000   0.00761  6.2212E-04 -2.6575E-03  2.7294E-03  -76.825
     5    1    0.0476   -0.0990    0.0000   0.00761  6.3117E-04 -2.5402E-03  2.6174E-03  -76.046
     6    1    0.0476   -0.0914    0.0000   0.00761  6.3776E-04 -2.4310E-03  2.5132E-03  -75.300
     7    1    0.0476   -0.0838    0.0000   0.00761  6.4484E-04 -2.3074E-03  2.3958E-03  -74.386
     8    1    0.0476   -0.0761    0.0000   0.00761  6.5098E-04 -2.1714E-03  2.2669E-03  -73.311
     9    1    0.0476   -0.0685    0.0000   0.00761  6.5680E-04 -2.0384E-03  2.1416E-03  -72.140
    10    1    0.0476   -0.0609    0.0000   0.00761  6.6198E-04 -1.8634E-03  1.9775E-03  -70.442
    11    1    0.0476   -0.0533    0.0000   0.00761  6.6663E-04 -1.7450E-03  1.8680E-03  -69.092
    12    1    0.0476   -0.0457    0.0000   0.00761  6.7068E-04 -1.4639E-03  1.6102E-03  -65.385
    13    1    0.0476   -0.0381    0.0000   0.00761  6.7413E-04 -1.4879E-03  1.6335E-03  -65.627
    14    1    0.0476   -0.0305    0.0000   0.00761  6.7696E-04 -7.9584E-04  1.0448E-03  -49.615
    15    1    0.0476   -0.0228    0.0000   0.00761  6.7918E-04 -1.5807E-03  1.7204E-03  -66.748
    16    1    0.0476   -0.0152    0.0000   0.00761  6.8077E-04  9.4906E-04  1.1680E-03   54.348
    17    1    0.0476   -0.0076    0.0000   0.00761  6.8173E-04 -3.7410E-03  3.8026E-03  -79.672
    18    1    0.0476    0.0000    0.0000   0.00761  6.8205E-04  7.4351E-03  7.4663E-03   84.759
    19    1    0.0476    0.0076    0.0000   0.00761  6.8174E-04 -3.7410E-03  3.8026E-03  -79.672
    20    1    0.0476    0.0152    0.0000   0.00761  6.8079E-04  9.4906E-04  1.1680E-03   54.347
    21    1    0.0476    0.0228    0.0000   0.00761  6.7921E-04 -1.5807E-03  1.7204E-03  -66.747
    22    1    0.0476    0.0305    0.0000   0.00761  6.7700E-04 -7.9584E-04  1.0448E-03  -49.613
    23    1    0.0476    0.0381    0.0000   0.00761  6.7417E-04 -1.4879E-03  1.6335E-03  -65.625
    24    1    0.0476    0.0457    0.0000   0.00761  6.7073E-04 -1.4638E-03  1.6102E-03  -65.383
    25    1    0.0476    0.0533    0.0000   0.00761  6.6670E-04 -1.7449E-03  1.8680E-03  -69.090
    26    1    0.0476    0.0609    0.0000   0.00761  6.6206E-04 -1.8634E-03  1.9775E-03  -70.440
    27    1    0.0476    0.0685    0.0000   0.00761  6.5689E-04 -2.0384E-03  2.1416E-03  -72.138
    28    1    0.0476    0.0761    0.0000   0.00761  6.5108E-04 -2.1714E-03  2.2669E-03  -73.309
    29    1    0.0476    0.0838    0.0000   0.00761  6.4494E-04 -2.3073E-03  2.3958E-03  -74.383
    30    1    0.0476    0.0914    0.0000   0.00761  6.3787E-04 -2.4310E-03  2.5132E-03  -75.297
    31    1    0.0476    0.0990    0.0000   0.00761  6.3128E-04 -2.5402E-03  2.6174E-03  -76.044
    32    1    0.0476    0.1066    0.0000   0.00761  6.2225E-04 -2.6575E-03  2.7294E-03  -76.822
    33    1    0.0476    0.1142    0.0000   0.00761  6.1732E-04 -2.7268E-03  2.7958E-03  -77.244
    34    1    0.0476    0.1218    0.0000   0.00761  6.0250E-04 -2.8737E-03  2.9362E-03  -78.159
    35    1    0.0476    0.1295    0.0000   0.00761  6.0970E-04 -2.8131E-03  2.8784E-03  -77.771
    36    2    0.0435   -0.1333    0.0000   0.00824 -5.7099E-04  3.1567E-03  3.2079E-03  100.253
    37    2    0.0353   -0.1333    0.0000   0.00824 -5.7911E-04  3.0796E-03  3.1336E-03  100.650
    38    2    0.0270   -0.1333    0.0000   0.00824 -5.6452E-04  3.1929E-03  3.2424E-03  100.027
    39    2    0.0188   -0.1333    0.0000   0.00824 -5.5796E-04  3.2233E-03  3.2712E-03   99.821
    40    2    0.0105   -0.1333    0.0000   0.00824 -5.4670E-04  3.2827E-03  3.3279E-03   99.455
    41    2    0.0023   -0.1333    0.0000   0.00824 -5.3641E-04  3.3204E-03  3.3634E-03   99.177
    42    2   -0.0060   -0.1333    0.0000   0.00824 -5.2466E-04  3.3575E-03  3.3983E-03   98.881
    43    2   -0.0142   -0.1333    0.0000   0.00824 -5.1257E-04  3.3841E-03  3.4227E-03   98.613
    44    2   -0.0224   -0.1333    0.0000   0.00824 -4.9969E-04  3.4039E-03  3.4404E-03   98.351
    45    2   -0.0307   -0.1333    0.0000   0.00824 -4.8625E-04  3.4147E-03  3.4492E-03   98.104
    46    2   -0.0389   -0.1333    0.0000   0.00824 -4.7220E-04  3.4172E-03  3.4496E-03   97.868
    47    2   -0.0472   -0.1333    0.0000   0.00824 -4.5761E-04  3.4106E-03  3.4412E-03   97.642
    48    2   -0.0554   -0.1333    0.0000   0.00824 -4.4248E-04  3.3951E-03  3.4238E-03   97.425
    49    2   -0.0636   -0.1333    0.0000   0.00824 -4.2687E-04  3.3704E-03  3.3974E-03   97.218
    50    2   -0.0719   -0.1333    0.0000   0.00824 -4.1081E-04  3.3365E-03  3.3617E-03   97.019
    51    2   -0.0801   -0.1333    0.0000   0.00824 -3.9434E-04  3.2933E-03  3.3168E-03   96.828
    52    2   -0.0884   -0.1333    0.0000   0.00824 -3.7749E-04  3.2408E-03  3.2627E-03   96.644
    53    2   -0.0966   -0.1333    0.0000   0.00824 -3.6030E-04  3.1790E-03  3.1993E-03   96.466
    54    2   -0.1049   -0.1333    0.0000   0.00824 -3.4281E-04  3.1079E-03  3.1267E-03   96.295
    55    2   -0.1131   -0.1333    0.0000   0.00824 -3.2507E-04  3.0275E-03  3.0449E-03   96.128
    56    2   -0.1213   -0.1333    0.0000   0.00824 -3.0710E-04  2.9380E-03  2.9541E-03   95.967
    57    2   -0.1296   -0.1333    0.0000   0.00824 -2.8896E-04  2.8395E-03  2.8542E-03   95.811
    58    2   -0.1378   -0.1333    0.0000   0.00824 -2.7068E-04  2.7320E-03  2.7453E-03   95.658
    59    2   -0.1461   -0.1333    0.0000   0.00824 -2.5229E-04  2.6155E-03  2.6276E-03   95.510
    60    2   -0.1543   -0.1333    0.0000   0.00824 -2.3384E-04  2.4903E-03  2.5012E-03   95.364
    61    2   -0.1626   -0.1333    0.0000   0.00824 -2.1534E-04  2.3561E-03  2.3659E-03   95.222
    62    2   -0.1708   -0.1333    0.0000   0.00824 -1.9688E-04  2.2137E-03  2.2224E-03   95.082
    63    2   -0.1790   -0.1333    0.0000   0.00824 -1.7837E-04  2.0613E-03  2.0690E-03   94.946
    64    2   -0.1873   -0.1333    0.0000   0.00824 -1.6008E-04  1.9027E-03  1.9094E-03   94.809
    65    2   -0.1955   -0.1333    0.0000   0.00824 -1.4143E-04  1.7287E-03  1.7344E-03   94.677
    66    2   -0.2038   -0.1333    0.0000   0.00824 -1.2376E-04  1.5590E-03  1.5639E-03   94.539
    67    2   -0.2120   -0.1333    0.0000   0.00824 -1.0400E-04  1.3467E-03  1.3507E-03   94.416
    68    2   -0.2202   -0.1333    0.0000   0.00824 -8.9010E-05  1.1948E-03  1.1981E-03   94.260
    69    2   -0.2285   -0.1333    0.0000   0.00824 -6.2622E-05  8.5933E-04  8.6160E-04   94.168
    70    2   -0.2367   -0.1333    0.0000   0.00824 -6.4716E-05  9.3862E-04  9.4084E-04   93.944
    71    3    0.0435    0.1333    0.0000   0.00824  5.7117E-04 -3.1566E-03  3.2079E-03  -79.744
    72    3    0.0353    0.1333    0.0000   0.00824  5.7928E-04 -3.0796E-03  3.1336E-03  -79.347
    73    3    0.0270    0.1333    0.0000   0.00824  5.6471E-04 -3.1929E-03  3.2424E-03  -79.970
    74    3    0.0188    0.1333    0.0000   0.00824  5.5816E-04 -3.2233E-03  3.2712E-03  -80.176
    75    3    0.0105    0.1333    0.0000   0.00824  5.4690E-04 -3.2827E-03  3.3279E-03  -80.541
    76    3    0.0023    0.1333    0.0000   0.00824  5.3662E-04 -3.3203E-03  3.3634E-03  -80.819
    77    3   -0.0060    0.1333    0.0000   0.00824  5.2488E-04 -3.3575E-03  3.3983E-03  -81.115
    78    3   -0.0142    0.1333    0.0000   0.00824  5.1280E-04 -3.3840E-03  3.4227E-03  -81.383
    79    3   -0.0224    0.1333    0.0000   0.00824  4.9992E-04 -3.4038E-03  3.4404E-03  -81.645
    80    3   -0.0307    0.1333    0.0000   0.00824  4.8648E-04 -3.4147E-03  3.4492E-03  -81.892
    81    3   -0.0389    0.1333    0.0000   0.00824  4.7244E-04 -3.4171E-03  3.4496E-03  -82.128
    82    3   -0.0472    0.1333    0.0000   0.00824  4.5784E-04 -3.4106E-03  3.4412E-03  -82.354
    83    3   -0.0554    0.1333    0.0000   0.00824  4.4272E-04 -3.3951E-03  3.4238E-03  -82.571
    84    3   -0.0636    0.1333    0.0000   0.00824  4.2712E-04 -3.3704E-03  3.3974E-03  -82.778
    85    3   -0.0719    0.1333    0.0000   0.00824  4.1105E-04 -3.3365E-03  3.3617E-03  -82.977
    86    3   -0.0801    0.1333    0.0000   0.00824  3.9458E-04 -3.2933E-03  3.3168E-03  -83.168
    87    3   -0.0884    0.1333    0.0000   0.00824  3.7773E-04 -3.2408E-03  3.2627E-03  -83.352
    88    3   -0.0966    0.1333    0.0000   0.00824  3.6054E-04 -3.1789E-03  3.1993E-03  -83.530
    89    3   -0.1049    0.1333    0.0000   0.00824  3.4305E-04 -3.1078E-03  3.1267E-03  -83.701
    90    3   -0.1131    0.1333    0.0000   0.00824  3.2530E-04 -3.0275E-03  3.0449E-03  -83.867
    91    3   -0.1213    0.1333    0.0000   0.00824  3.0733E-04 -2.9380E-03  2.9541E-03  -84.028
    92    3   -0.1296    0.1333    0.0000   0.00824  2.8918E-04 -2.8395E-03  2.8542E-03  -84.185
[...]
   27.00    144.00    -10.09    -7.90    -5.85      0.6607    -64.50 LEFT    6.3397E-02    -58.35  8.1570E-02     49.99
   36.00    144.00     -4.76    -1.57     0.13      0.6889    -85.65 LEFT    1.1704E-01    -84.81  1.6910E-01      8.49
   45.00    144.00     -4.38     0.15     1.46      0.5817     82.94 LEFT    1.2225E-01   -108.99  2.0610E-01    -26.89
   54.00    144.00     -6.83    -0.53     0.39      0.4544     80.34 LEFT    9.2211E-02   -130.07  1.9061E-01    -56.19
   63.00    144.00    -11.68    -2.98    -2.43      0.3333     81.16 LEFT    5.2797E-02   -147.28  1.4373E-01    -79.32
   72.00    144.00    -19.03    -6.85    -6.60      0.2182     83.50 LEFT    2.2638E-02   -160.01  9.2008E-02    -96.15
   81.00    144.00    -29.61   -11.37   -11.30      0.1069     86.59 LEFT    6.6980E-03   -167.82  5.4699E-02   -106.60
   90.00    144.00   -999.99   -13.79   -13.79      0.0000    -90.00 LINEAR  1.6357E-13      9.55  4.1388E-02   -110.28
   99.00    144.00    -29.61   -11.37   -11.30      0.1069    -86.59 RIGHT   6.6980E-03     12.18  5.4699E-02   -106.60
  108.00    144.00    -19.03    -6.85    -6.60      0.2182    -83.50 RIGHT   2.2638E-02     19.99  9.2008E-02    -96.15
  117.00    144.00    -11.68    -2.98    -2.43      0.3333    -81.16 RIGHT   5.2797E-02     32.72  1.4373E-01    -79.32
  126.00    144.00     -6.83    -0.53     0.39      0.4544    -80.34 RIGHT   9.2211E-02     49.93  1.9061E-01    -56.19
  135.00    144.00     -4.38     0.15     1.46      0.5817    -82.94 RIGHT   1.2225E-01     71.01  2.0610E-01    -26.89
  144.00    144.00     -4.76    -1.57     0.13      0.6889     85.65 RIGHT   1.1704E-01     95.19  1.6910E-01      8.49
  153.00    144.00    -10.09    -7.90    -5.85      0.6607     64.50 RIGHT   6.3397E-02    121.65  8.1570E-02     49.99
  162.00    144.00    -19.99   -17.68   -15.67      0.4593     56.73 RIGHT   2.0277E-02    -33.68  2.6445E-02    -85.44
  171.00    144.00     -7.00    -4.96    -2.85      0.2368     52.49 RIGHT   9.0478E-02     -5.46  1.1447E-01    -32.90
  180.00    144.00     -5.20    -2.47    -0.62      0.0027     53.85 LEFT    1.1128E-01     20.18  1.5231E-01     20.50
    0.00    162.00    -10.75    -1.06    -0.62      0.0027    -71.85 RIGHT   5.8770E-02   -160.08  1.7924E-01     20.44
    9.00    162.00    -13.52    -4.57    -4.05      0.1210    -71.42 LEFT    4.2710E-02    169.32  1.1962E-01    -32.80
   18.00    162.00    -29.85   -22.86   -22.07      0.2646    -70.06 LEFT    6.5141E-03    -38.07  1.4574E-02    100.34
   27.00    162.00    -11.10    -3.36    -2.69      0.3302    -76.20 LEFT    5.6413E-02    -74.41  1.3754E-01     47.60
   36.00    162.00     -8.71    -0.75    -0.11      0.3717    -81.50 LEFT    7.4278E-02   -106.15  1.8569E-01      2.57
   45.00    162.00    -11.14    -2.48    -1.92      0.3641    -86.63 LEFT    5.6151E-02   -135.23  1.5230E-01    -37.28
   54.00    162.00    -18.87    -8.85    -8.43      0.3153     89.68 LEFT    2.3067E-02   -160.53  7.3139E-02    -71.43
   63.00    162.00    -36.84   -26.15   -25.79      0.2919    -89.75 LEFT    2.9140E-03     -1.80  9.9806E-03     88.97
   72.00    162.00    -23.83    -8.95    -8.81      0.1777     88.22 LEFT    1.3036E-02    -16.63  7.2243E-02     63.76
   81.00    162.00    -26.25    -5.48    -5.45      0.0894     88.85 LEFT    9.8670E-03    -25.96  1.0773E-01     51.53
   90.00    162.00   -999.99    -4.62    -4.62      0.0000    -90.00 LINEAR  3.5588E-13    150.89  1.1892E-01     47.46
   99.00    162.00    -26.25    -5.48    -5.45      0.0894    -88.85 RIGHT   9.8670E-03    154.04  1.0773E-01     51.53
  108.00    162.00    -23.83    -8.95    -8.81      0.1777    -88.22 RIGHT   1.3036E-02    163.37  7.2243E-02     63.76
  117.00    162.00    -36.84   -26.15   -25.79      0.2919     89.75 RIGHT   2.9140E-03    178.20  9.9806E-03     88.97
  126.00    162.00    -18.87    -8.85    -8.43      0.3153    -89.68 RIGHT   2.3067E-02     19.47  7.3139E-02    -71.43
  135.00    162.00    -11.14    -2.48    -1.92      0.3641     86.63 RIGHT   5.6151E-02     44.77  1.5230E-01    -37.28
  144.00    162.00     -8.71    -0.75    -0.11      0.3717     81.50 RIGHT   7.4278E-02     73.85  1.8569E-01      2.57
  153.00    162.00    -11.10    -3.36    -2.69      0.3302     76.20 RIGHT   5.6413E-02    105.59  1.3754E-01     47.60
  162.00    162.00    -29.85   -22.86   -22.07      0.2646     70.06 RIGHT   6.5141E-03    141.93  1.4574E-02    100.34
  171.00    162.00    -13.52    -4.57    -4.05      0.1210     71.42 RIGHT   4.2710E-02    -10.68  1.1962E-01    -32.80
  180.00    162.00    -10.75    -1.06    -0.62      0.0027     71.85 LEFT    5.8770E-02     19.92  1.7924E-01     20.44
    0.00    180.00    -49.06    -0.62    -0.62      0.0027    -89.85 RIGHT   7.1322E-04    155.24  1.8863E-01     20.39
    9.00    180.00    -49.11    -4.53    -4.53      0.0059     90.00 RIGHT   7.0938E-04     56.64  1.2015E-01    -33.15
   18.00    180.00    -49.21   -16.19   -16.19      0.0155    -89.08 LEFT    7.0177E-04    -38.22  3.1406E-02     97.93
   27.00    180.00    -49.81    -2.22    -2.22      0.0004    -89.76 LEFT    6.5492E-04   -127.21  1.5687E-01     46.66
   36.00    180.00    -50.86    -0.73    -0.73      0.0016    -89.85 RIGHT   5.7999E-04    149.34  1.8612E-01      0.95
   45.00    180.00    -52.10    -4.07    -4.07      0.0036    -89.91 RIGHT   5.0308E-04     74.01  1.2676E-01    -39.90
   54.00    180.00    -53.65   -16.35   -16.35      0.0136     89.96 RIGHT   4.2046E-04     10.31  3.0832E-02    -76.43
   63.00    180.00    -55.90   -11.29   -11.29      0.0051    -89.83 LEFT    3.2452E-04    -40.25  5.5181E-02     79.47
   72.00    180.00    -59.32    -5.16    -5.16      0.0014    -89.92 LEFT    2.1906E-04    -77.13  1.1179E-01     58.34
   81.00    180.00    -65.30    -3.18    -3.18      0.0004    -89.96 LEFT    1.0995E-04    -99.68  1.4049E-01     45.73
   90.00    180.00   -999.99    -2.67    -2.67      0.0000     90.00 LINEAR  3.5749E-15     72.72  1.4886E-01     41.51
   99.00    180.00    -65.30    -3.18    -3.18      0.0004     89.96 RIGHT   1.0995E-04     80.32  1.4049E-01     45.73
  108.00    180.00    -59.32    -5.16    -5.16      0.0014     89.92 RIGHT   2.1906E-04    102.87  1.1179E-01     58.34
  117.00    180.00    -55.90   -11.29   -11.29      0.0051     89.83 RIGHT   3.2452E-04    139.75  5.5181E-02     79.47
  126.00    180.00    -53.65   -16.35   -16.35      0.0136    -89.96 LEFT    4.2046E-04   -169.69  3.0832E-02    -76.43
  135.00    180.00    -52.10    -4.07    -4.07      0.0036     89.91 LEFT    5.0308E-04   -105.99  1.2676E-01    -39.90
  144.00    180.00    -50.86    -0.73    -0.73      0.0016     89.85 LEFT    5.7999E-04    -30.66  1.8612E-01      0.95
  153.00    180.00    -49.81    -2.22    -2.22      0.0004     89.76 RIGHT   6.5492E-04     52.79  1.5687E-01     46.66
  162.00    180.00    -49.21   -16.19   -16.19      0.0155     89.08 RIGHT   7.0177E-04    141.78  3.1406E-02     97.93
  171.00    180.00    -49.11    -4.53    -4.53      0.0059    -90.00 LEFT    7.0938E-04   -123.36  1.2015E-01    -33.15
  180.00    180.00    -49.06    -0.62    -0.62      0.0027     89.85 LEFT    7.1322E-04    -24.76  1.8863E-01     20.39


                              ---------- NORMALIZED GAIN ----------
                                        HORIZONTAL GAIN
                                   NORMALIZATION FACTOR: 6.82 db

    ---- ANGLES ----                ---- ANGLES ----                ---- ANGLES ----
    THETA      PHI        GAIN      THETA      PHI        GAIN      THETA      PHI       GAIN
   DEGREES   DEGREES        DB     DEGREES   DEGREES        DB     DEGREES   DEGREES       DB
      0.00   -180.00     -7.44        0.00    -54.00    -12.09        0.00     72.00    -17.57
      9.00   -180.00    -11.36        9.00    -54.00    -11.60        9.00     72.00    -13.04
     18.00   -180.00    -23.01       18.00    -54.00    -13.86       18.00     72.00     -9.92
     27.00   -180.00     -9.04       27.00    -54.00    -29.54       27.00     72.00     -8.92
     36.00   -180.00     -7.55       36.00    -54.00    -13.65       36.00     72.00     -9.64
     45.00   -180.00    -10.89       45.00    -54.00     -6.96       45.00     72.00    -12.16
     54.00   -180.00    -23.17       54.00    -54.00     -3.98       54.00     72.00    -17.41
     63.00   -180.00    -18.11       63.00    -54.00     -2.61       63.00     72.00    -33.89
     72.00   -180.00    -11.98       72.00    -54.00     -2.07       72.00     72.00    -22.47
     81.00   -180.00    -10.00       81.00    -54.00     -1.93       81.00     72.00    -17.23
     90.00   -180.00     -9.49       90.00    -54.00     -1.92       90.00     72.00    -15.97
     99.00   -180.00    -10.00       99.00    -54.00     -1.93       99.00     72.00    -17.23
    108.00   -180.00    -11.98      108.00    -54.00     -2.07      108.00     72.00    -22.47
    117.00   -180.00    -18.11      117.00    -54.00     -2.61      117.00     72.00    -33.89
    126.00   -180.00    -23.17      126.00    -54.00     -3.98      126.00     72.00    -17.41
    135.00   -180.00    -10.89      135.00    -54.00     -6.96      135.00     72.00    -12.16
    144.00   -180.00     -7.55      144.00    -54.00    -13.65      144.00     72.00     -9.64
    153.00   -180.00     -9.04      153.00    -54.00    -29.54      153.00     72.00     -8.92
    162.00   -180.00    -23.01      162.00    -54.00    -13.86      162.00     72.00     -9.92
    171.00   -180.00    -11.36      171.00    -54.00    -11.60      171.00     72.00    -13.04
    180.00   -180.00     -7.44      180.00    -54.00    -12.09      180.00     72.00    -17.57
      0.00   -162.00     -7.87        0.00    -36.00     -9.30        0.00     90.00    -55.89
      9.00   -162.00    -11.39        9.00    -36.00    -11.13        9.00     90.00    -15.15
     18.00   -162.00    -29.51       18.00    -36.00    -23.54       18.00     90.00     -9.28
     27.00   -162.00    -10.16       27.00    -36.00    -13.42       27.00     90.00     -6.05
     36.00   -162.00     -7.56       36.00    -36.00     -7.11       36.00     90.00     -3.94
     45.00   -162.00     -9.28       45.00    -36.00     -5.47       45.00     90.00     -2.50
     54.00   -162.00    -15.65       54.00    -36.00     -6.24       54.00     90.00     -1.49
     63.00   -162.00    -32.89       63.00    -36.00     -8.78       63.00     90.00     -0.79
     72.00   -162.00    -15.76       72.00    -36.00    -12.74       72.00     90.00     -0.34
     81.00   -162.00    -12.29       81.00    -36.00    -17.34       81.00     90.00     -0.09
     90.00   -162.00    -11.43       90.00    -36.00    -19.81       90.00     90.00     -0.01
     99.00   -162.00    -12.29       99.00    -36.00    -17.34       99.00     90.00     -0.09
    108.00   -162.00    -15.76      108.00    -36.00    -12.74      108.00     90.00     -0.34
    117.00   -162.00    -32.89      117.00    -36.00     -8.78      117.00     90.00     -0.79
    126.00   -162.00    -15.65      126.00    -36.00     -6.24      126.00     90.00     -1.49
    135.00   -162.00     -9.28      135.00    -36.00     -5.47      135.00     90.00     -2.50
    144.00   -162.00     -7.56      144.00    -36.00     -7.11      144.00     90.00     -3.94
    153.00   -162.00    -10.16      153.00    -36.00    -13.42      153.00     90.00     -6.05
    162.00   -162.00    -29.51      162.00    -36.00    -23.54      162.00     90.00     -9.28
    171.00   -162.00    -11.39      171.00    -36.00    -11.13      171.00     90.00    -15.15
    180.00   -162.00     -7.87      180.00    -36.00     -9.30      180.00     90.00    -55.89
      0.00   -144.00     -9.26        0.00    -18.00     -7.88        0.00    108.00    -17.71
      9.00   -144.00    -11.76        9.00    -18.00    -11.23        9.00    108.00    -15.01
     18.00   -144.00    -24.53       18.00    -18.00    -29.39       18.00    108.00    -11.28
     27.00   -144.00    -14.67       27.00    -18.00     -9.78       27.00    108.00     -9.89
     36.00   -144.00     -8.35       36.00    -18.00     -7.11       36.00    108.00    -10.38
     45.00   -144.00     -6.64       45.00    -18.00     -8.80       45.00    108.00    -12.74
     54.00   -144.00     -7.31       54.00    -18.00    -15.16       54.00    108.00    -17.86
     63.00   -144.00     -9.76       63.00    -18.00    -32.44       63.00    108.00    -33.67
     72.00   -144.00    -13.63       72.00    -18.00    -15.27       72.00    108.00    -23.12
     81.00   -144.00    -18.13       81.00    -18.00    -11.81       81.00    108.00    -17.78
     90.00   -144.00    -20.53       90.00    -18.00    -10.96       90.00    108.00    -16.49
     99.00   -144.00    -18.13       99.00    -18.00    -11.81       99.00    108.00    -17.78
    108.00   -144.00    -13.63      108.00    -18.00    -15.27      108.00    108.00    -23.12
    117.00   -144.00     -9.76      117.00    -18.00    -32.44      117.00    108.00    -33.67
    126.00   -144.00     -7.31      126.00    -18.00    -15.16      126.00    108.00    -17.86
    135.00   -144.00     -6.64      135.00    -18.00     -8.80      135.00    108.00    -12.74
    144.00   -144.00     -8.35      144.00    -18.00     -7.11      144.00    108.00    -10.38
    153.00   -144.00    -14.67      153.00    -18.00     -9.78      153.00    108.00     -9.89
    162.00   -144.00    -24.53      162.00    -18.00    -29.39      162.00    108.00    -11.28
    171.00   -144.00    -11.76      171.00    -18.00    -11.23      171.00    108.00    -15.01
    180.00   -144.00     -9.26      180.00    -18.00     -7.88      180.00    108.00    -17.71
      0.00   -126.00    -12.02        0.00      0.00     -7.44        0.00    126.00    -12.09
      9.00   -126.00    -12.96        9.00      0.00    -11.34        9.00    126.00    -13.03
     18.00   -126.00    -15.45       18.00      0.00    -23.11       18.00    126.00    -15.53
     27.00   -126.00    -30.25       27.00      0.00     -9.05       27.00    126.00    -30.57
     36.00   -126.00    -15.08       36.00      0.00     -7.55       36.00    126.00    -15.07
     45.00   -126.00     -8.14       45.00      0.00    -10.87       45.00    126.00     -8.15
     54.00   -126.00     -4.99       54.00      0.00    -23.07       54.00    126.00     -5.01
     63.00   -126.00     -3.51       63.00      0.00    -18.17       63.00    126.00     -3.53
     72.00   -126.00     -2.90       72.00      0.00    -12.01       72.00    126.00     -2.92
     81.00   -126.00     -2.71       81.00      0.00    -10.01       81.00    126.00     -2.73
     90.00   -126.00     -2.68       90.00      0.00     -9.51       90.00    126.00     -2.70
     99.00   -126.00     -2.71       99.00      0.00    -10.01       99.00    126.00     -2.73
    108.00   -126.00     -2.90      108.00      0.00    -12.01      108.00    126.00     -2.92
    117.00   -126.00     -3.51      117.00      0.00    -18.17      117.00    126.00     -3.53
    126.00   -126.00     -4.99      126.00      0.00    -23.07      126.00    126.00     -5.01
    135.00   -126.00     -8.14      135.00      0.00    -10.87      135.00    126.00     -8.15
    144.00   -126.00    -15.08      144.00      0.00     -7.55      144.00    126.00    -15.07
    153.00   -126.00    -30.25      153.00      0.00     -9.05      153.00    126.00    -30.57
    162.00   -126.00    -15.45      162.00      0.00    -23.11      162.00    126.00    -15.53
    171.00   -126.00    -12.96      171.00      0.00    -11.34      171.00    126.00    -13.03
    180.00   -126.00    -12.02      180.00      0.00     -7.44      180.00    126.00    -12.09
      0.00   -108.00    -17.57        0.00     18.00     -7.87        0.00    144.00     -9.30
      9.00   -108.00    -14.86        9.00     18.00    -11.20        9.00    144.00    -11.78
     18.00   -108.00    -11.18       18.00     18.00    -29.59       18.00    144.00    -24.50
     27.00   -108.00     -9.81       27.00     18.00     -9.79       27.00    144.00    -14.72
     36.00   -108.00    -10.31       36.00     18.00     -7.10       36.00    144.00     -8.39
     45.00   -108.00    -12.65       45.00     18.00     -8.78       45.00    144.00     -6.67
     54.00   -108.00    -17.72       54.00     18.00    -15.12       54.00    144.00     -7.35
     63.00   -108.00    -32.91       63.00     18.00    -32.74       63.00    144.00     -9.80
     72.00   -108.00    -23.31       72.00     18.00    -15.31       72.00    144.00    -13.67
     81.00   -108.00    -17.87       81.00     18.00    -11.83       81.00    144.00    -18.19
     90.00   -108.00    -16.57       90.00     18.00    -10.98       90.00    144.00    -20.61
     99.00   -108.00    -17.87       99.00     18.00    -11.83       99.00    144.00    -18.19
    108.00   -108.00    -23.31      108.00     18.00    -15.31      108.00    144.00    -13.67
    117.00   -108.00    -32.91      117.00     18.00    -32.74      117.00    144.00     -9.80
    126.00   -108.00    -17.72      126.00     18.00    -15.12      126.00    144.00     -7.35
    135.00   -108.00    -12.65      135.00     18.00     -8.78      135.00    144.00     -6.67
    144.00   -108.00    -10.31      144.00     18.00     -7.10      144.00    144.00     -8.39
    153.00   -108.00     -9.81      153.00     18.00     -9.79      153.00    144.00    -14.72
    162.00   -108.00    -11.18      162.00     18.00    -29.59      162.00    144.00    -24.50
    171.00   -108.00    -14.86      171.00     18.00    -11.20      171.00    144.00    -11.78
    180.00   -108.00    -17.57      180.00     18.00     -7.87      180.00    144.00     -9.30
      0.00    -90.00    -55.89        0.00     36.00     -9.26        0.00    162.00     -7.88
      9.00    -90.00    -15.06        9.00     36.00    -11.08        9.00    162.00    -11.39
     18.00    -90.00     -9.24       18.00     36.00    -23.30       18.00    162.00    -29.68
     27.00    -90.00     -6.02       27.00     36.00    -13.48       27.00    162.00    -10.18
     36.00    -90.00     -3.92       36.00     36.00     -7.13       36.00    162.00     -7.57
     45.00    -90.00     -2.48       45.00     36.00     -5.47       45.00    162.00     -9.30
     54.00    -90.00     -1.47       54.00     36.00     -6.22       54.00    162.00    -15.67
     63.00    -90.00     -0.78       63.00     36.00     -8.75       63.00    162.00    -32.97
     72.00    -90.00     -0.33       72.00     36.00    -12.69       72.00    162.00    -15.77
     81.00    -90.00     -0.08       81.00     36.00    -17.25       81.00    162.00    -12.30
     90.00    -90.00      0.00       90.00     36.00    -19.69       90.00    162.00    -11.45
     99.00    -90.00     -0.08       99.00     36.00    -17.25       99.00    162.00    -12.30
    108.00    -90.00     -0.33      108.00     36.00    -12.69      108.00    162.00    -15.77
    117.00    -90.00     -0.78      117.00     36.00     -8.75      117.00    162.00    -32.97
    126.00    -90.00     -1.47      126.00     36.00     -6.22      126.00    162.00    -15.67
    135.00    -90.00     -2.48      135.00     36.00     -5.47      135.00    162.00     -9.30
    144.00    -90.00     -3.92      144.00     36.00     -7.13      144.00    162.00     -7.57
    153.00    -90.00     -6.02      153.00     36.00    -13.48      153.00    162.00    -10.18
    162.00    -90.00     -9.24      162.00     36.00    -23.30      162.00    162.00    -29.68
    171.00    -90.00    -15.06      171.00     36.00    -11.08      171.00    162.00    -11.39
    180.00    -90.00    -55.89      180.00     36.00     -9.26      180.00    162.00     -7.88
      0.00    -72.00    -17.71        0.00     54.00    -12.02        0.00    180.00     -7.44
      9.00    -72.00    -13.08        9.00     54.00    -11.53        9.00    180.00    -11.36
     18.00    -72.00     -9.95       18.00     54.00    -13.76       18.00    180.00    -23.01
     27.00    -72.00     -8.95      